# MODFLOW2000 Well Package
PARAMETER  0  0
        10        54
        10         0               Stress Period 1
         1         1         1 0.5702000         0
         2         1         1 0.5702000         0
         3         1         1 0.5702000         0
         4         1         1 0.5702000         0
         5         1         1 0.5702000         0
         6         1         1 0.5702000         0
         7         1         1 0.5702000         0
         8         1         1 0.5702000         0
         9         1         1 0.5702000         0
        10         1         1 0.5702000         0
