# MODFLOW2000 Layer Property Flow (LPF) Package
        50  -1.000000e+030         0
  0  0  0  0  0  0  0  0  0  0
  0  0  0  0  0  0  0  0  0  0
  1.000000e+000  1.000000e+000  1.000000e+000  1.000000e+000  1.000000e+000  1.000000e+000  1.000000e+000  1.000000e+000  1.000000e+000  1.000000e+000
 0 0 0 0 0 0 0 0 0 0
 0 0 0 0 0 0 0 0 0 0
        11     1.000(10e12.4)                   -1     HYDRAULIC CONDUCTIVITY Layer   1
  8.6400e+02  8.6400e+02  8.6400e+02  8.6400e+02  8.6400e+02  8.6400e+02  8.6400e+02  8.6400e+02  8.6400e+02  8.6400e+02
  8.6400e+02  8.6400e+02  8.6400e+02  8.6400e+02  8.6400e+02  8.6400e+02  8.6400e+02  8.6400e+02  8.6400e+02  8.6400e+02
  8.6400e+02
        11     1.000(10e12.4)                   -1     VERTICAL HYDRAULIC CONDUCTIVITY Layer   1
  8.6400e+02  8.6400e+02  8.6400e+02  8.6400e+02  8.6400e+02  8.6400e+02  8.6400e+02  8.6400e+02  8.6400e+02  8.6400e+02
  8.6400e+02  8.6400e+02  8.6400e+02  8.6400e+02  8.6400e+02  8.6400e+02  8.6400e+02  8.6400e+02  8.6400e+02  8.6400e+02
  8.6400e+02
        11     1.000(10e12.4)                   -1     PRIMARY STORAGE Layer   1
  1.0000e-04  1.0000e-04  1.0000e-04  1.0000e-04  1.0000e-04  1.0000e-04  1.0000e-04  1.0000e-04  1.0000e-04  1.0000e-04
  1.0000e-04  1.0000e-04  1.0000e-04  1.0000e-04  1.0000e-04  1.0000e-04  1.0000e-04  1.0000e-04  1.0000e-04  1.0000e-04
  1.0000e-04
        11     1.000(10e12.4)                   -1     HYDRAULIC CONDUCTIVITY Layer   2
  8.6400e+02  8.6400e+02  8.6400e+02  8.6400e+02  8.6400e+02  8.6400e+02  8.6400e+02  8.6400e+02  8.6400e+02  8.6400e+02
  8.6400e+02  8.6400e+02  8.6400e+02  8.6400e+02  8.6400e+02  8.6400e+02  8.6400e+02  8.6400e+02  8.6400e+02  8.6400e+02
  8.6400e+02
        11     1.000(10e12.4)                   -1     VERTICAL HYDRAULIC CONDUCTIVITY Layer   2
  8.6400e+02  8.6400e+02  8.6400e+02  8.6400e+02  8.6400e+02  8.6400e+02  8.6400e+02  8.6400e+02  8.6400e+02  8.6400e+02
  8.6400e+02  8.6400e+02  8.6400e+02  8.6400e+02  8.6400e+02  8.6400e+02  8.6400e+02  8.6400e+02  8.6400e+02  8.6400e+02
  8.6400e+02
        11     1.000(10e12.4)                   -1     PRIMARY STORAGE Layer   2
  1.0000e-04  1.0000e-04  1.0000e-04  1.0000e-04  1.0000e-04  1.0000e-04  1.0000e-04  1.0000e-04  1.0000e-04  1.0000e-04
  1.0000e-04  1.0000e-04  1.0000e-04  1.0000e-04  1.0000e-04  1.0000e-04  1.0000e-04  1.0000e-04  1.0000e-04  1.0000e-04
  1.0000e-04
        11     1.000(10e12.4)                   -1     HYDRAULIC CONDUCTIVITY Layer   3
  8.6400e+02  8.6400e+02  8.6400e+02  8.6400e+02  8.6400e+02  8.6400e+02  8.6400e+02  8.6400e+02  8.6400e+02  8.6400e+02
  8.6400e+02  8.6400e+02  8.6400e+02  8.6400e+02  8.6400e+02  8.6400e+02  8.6400e+02  8.6400e+02  8.6400e+02  8.6400e+02
  8.6400e+02
        11     1.000(10e12.4)                   -1     VERTICAL HYDRAULIC CONDUCTIVITY Layer   3
  8.6400e+02  8.6400e+02  8.6400e+02  8.6400e+02  8.6400e+02  8.6400e+02  8.6400e+02  8.6400e+02  8.6400e+02  8.6400e+02
  8.6400e+02  8.6400e+02  8.6400e+02  8.6400e+02  8.6400e+02  8.6400e+02  8.6400e+02  8.6400e+02  8.6400e+02  8.6400e+02
  8.6400e+02
        11     1.000(10e12.4)                   -1     PRIMARY STORAGE Layer   3
  1.0000e-04  1.0000e-04  1.0000e-04  1.0000e-04  1.0000e-04  1.0000e-04  1.0000e-04  1.0000e-04  1.0000e-04  1.0000e-04
  1.0000e-04  1.0000e-04  1.0000e-04  1.0000e-04  1.0000e-04  1.0000e-04  1.0000e-04  1.0000e-04  1.0000e-04  1.0000e-04
  1.0000e-04
        11     1.000(10e12.4)                   -1     HYDRAULIC CONDUCTIVITY Layer   4
  8.6400e+02  8.6400e+02  8.6400e+02  8.6400e+02  8.6400e+02  8.6400e+02  8.6400e+02  8.6400e+02  8.6400e+02  8.6400e+02
  8.6400e+02  8.6400e+02  8.6400e+02  8.6400e+02  8.6400e+02  8.6400e+02  8.6400e+02  8.6400e+02  8.6400e+02  8.6400e+02
  8.6400e+02
        11     1.000(10e12.4)                   -1     VERTICAL HYDRAULIC CONDUCTIVITY Layer   4
  8.6400e+02  8.6400e+02  8.6400e+02  8.6400e+02  8.6400e+02  8.6400e+02  8.6400e+02  8.6400e+02  8.6400e+02  8.6400e+02
  8.6400e+02  8.6400e+02  8.6400e+02  8.6400e+02  8.6400e+02  8.6400e+02  8.6400e+02  8.6400e+02  8.6400e+02  8.6400e+02
  8.6400e+02
        11     1.000(10e12.4)                   -1     PRIMARY STORAGE Layer   4
  1.0000e-04  1.0000e-04  1.0000e-04  1.0000e-04  1.0000e-04  1.0000e-04  1.0000e-04  1.0000e-04  1.0000e-04  1.0000e-04
  1.0000e-04  1.0000e-04  1.0000e-04  1.0000e-04  1.0000e-04  1.0000e-04  1.0000e-04  1.0000e-04  1.0000e-04  1.0000e-04
  1.0000e-04
        11     1.000(10e12.4)                   -1     HYDRAULIC CONDUCTIVITY Layer   5
  8.6400e+02  8.6400e+02  8.6400e+02  8.6400e+02  8.6400e+02  8.6400e+02  8.6400e+02  8.6400e+02  8.6400e+02  8.6400e+02
  8.6400e+02  8.6400e+02  8.6400e+02  8.6400e+02  8.6400e+02  8.6400e+02  8.6400e+02  8.6400e+02  8.6400e+02  8.6400e+02
  8.6400e+02
        11     1.000(10e12.4)                   -1     VERTICAL HYDRAULIC CONDUCTIVITY Layer   5
  8.6400e+02  8.6400e+02  8.6400e+02  8.6400e+02  8.6400e+02  8.6400e+02  8.6400e+02  8.6400e+02  8.6400e+02  8.6400e+02
  8.6400e+02  8.6400e+02  8.6400e+02  8.6400e+02  8.6400e+02  8.6400e+02  8.6400e+02  8.6400e+02  8.6400e+02  8.6400e+02
  8.6400e+02
        11     1.000(10e12.4)                   -1     PRIMARY STORAGE Layer   5
  1.0000e-04  1.0000e-04  1.0000e-04  1.0000e-04  1.0000e-04  1.0000e-04  1.0000e-04  1.0000e-04  1.0000e-04  1.0000e-04
  1.0000e-04  1.0000e-04  1.0000e-04  1.0000e-04  1.0000e-04  1.0000e-04  1.0000e-04  1.0000e-04  1.0000e-04  1.0000e-04
  1.0000e-04
        11     1.000(10e12.4)                   -1     HYDRAULIC CONDUCTIVITY Layer   6
  8.6400e+02  8.6400e+02  8.6400e+02  8.6400e+02  8.6400e+02  8.6400e+02  8.6400e+02  8.6400e+02  8.6400e+02  8.6400e+02
  8.6400e+02  8.6400e+02  8.6400e+02  8.6400e+02  8.6400e+02  8.6400e+02  8.6400e+02  8.6400e+02  8.6400e+02  8.6400e+02
  8.6400e+02
        11     1.000(10e12.4)                   -1     VERTICAL HYDRAULIC CONDUCTIVITY Layer   6
  8.6400e+02  8.6400e+02  8.6400e+02  8.6400e+02  8.6400e+02  8.6400e+02  8.6400e+02  8.6400e+02  8.6400e+02  8.6400e+02
  8.6400e+02  8.6400e+02  8.6400e+02  8.6400e+02  8.6400e+02  8.6400e+02  8.6400e+02  8.6400e+02  8.6400e+02  8.6400e+02
  8.6400e+02
        11     1.000(10e12.4)                   -1     PRIMARY STORAGE Layer   6
  1.0000e-04  1.0000e-04  1.0000e-04  1.0000e-04  1.0000e-04  1.0000e-04  1.0000e-04  1.0000e-04  1.0000e-04  1.0000e-04
  1.0000e-04  1.0000e-04  1.0000e-04  1.0000e-04  1.0000e-04  1.0000e-04  1.0000e-04  1.0000e-04  1.0000e-04  1.0000e-04
  1.0000e-04
        11     1.000(10e12.4)                   -1     HYDRAULIC CONDUCTIVITY Layer   7
  8.6400e+02  8.6400e+02  8.6400e+02  8.6400e+02  8.6400e+02  8.6400e+02  8.6400e+02  8.6400e+02  8.6400e+02  8.6400e+02
  8.6400e+02  8.6400e+02  8.6400e+02  8.6400e+02  8.6400e+02  8.6400e+02  8.6400e+02  8.6400e+02  8.6400e+02  8.6400e+02
  8.6400e+02
        11     1.000(10e12.4)                   -1     VERTICAL HYDRAULIC CONDUCTIVITY Layer   7
  8.6400e+02  8.6400e+02  8.6400e+02  8.6400e+02  8.6400e+02  8.6400e+02  8.6400e+02  8.6400e+02  8.6400e+02  8.6400e+02
  8.6400e+02  8.6400e+02  8.6400e+02  8.6400e+02  8.6400e+02  8.6400e+02  8.6400e+02  8.6400e+02  8.6400e+02  8.6400e+02
  8.6400e+02
        11     1.000(10e12.4)                   -1     PRIMARY STORAGE Layer   7
  1.0000e-04  1.0000e-04  1.0000e-04  1.0000e-04  1.0000e-04  1.0000e-04  1.0000e-04  1.0000e-04  1.0000e-04  1.0000e-04
  1.0000e-04  1.0000e-04  1.0000e-04  1.0000e-04  1.0000e-04  1.0000e-04  1.0000e-04  1.0000e-04  1.0000e-04  1.0000e-04
  1.0000e-04
        11     1.000(10e12.4)                   -1     HYDRAULIC CONDUCTIVITY Layer   8
  8.6400e+02  8.6400e+02  8.6400e+02  8.6400e+02  8.6400e+02  8.6400e+02  8.6400e+02  8.6400e+02  8.6400e+02  8.6400e+02
  8.6400e+02  8.6400e+02  8.6400e+02  8.6400e+02  8.6400e+02  8.6400e+02  8.6400e+02  8.6400e+02  8.6400e+02  8.6400e+02
  8.6400e+02
        11     1.000(10e12.4)                   -1     VERTICAL HYDRAULIC CONDUCTIVITY Layer   8
  8.6400e+02  8.6400e+02  8.6400e+02  8.6400e+02  8.6400e+02  8.6400e+02  8.6400e+02  8.6400e+02  8.6400e+02  8.6400e+02
  8.6400e+02  8.6400e+02  8.6400e+02  8.6400e+02  8.6400e+02  8.6400e+02  8.6400e+02  8.6400e+02  8.6400e+02  8.6400e+02
  8.6400e+02
        11     1.000(10e12.4)                   -1     PRIMARY STORAGE Layer   8
  1.0000e-04  1.0000e-04  1.0000e-04  1.0000e-04  1.0000e-04  1.0000e-04  1.0000e-04  1.0000e-04  1.0000e-04  1.0000e-04
  1.0000e-04  1.0000e-04  1.0000e-04  1.0000e-04  1.0000e-04  1.0000e-04  1.0000e-04  1.0000e-04  1.0000e-04  1.0000e-04
  1.0000e-04
        11     1.000(10e12.4)                   -1     HYDRAULIC CONDUCTIVITY Layer   9
  8.6400e+02  8.6400e+02  8.6400e+02  8.6400e+02  8.6400e+02  8.6400e+02  8.6400e+02  8.6400e+02  8.6400e+02  8.6400e+02
  8.6400e+02  8.6400e+02  8.6400e+02  8.6400e+02  8.6400e+02  8.6400e+02  8.6400e+02  8.6400e+02  8.6400e+02  8.6400e+02
  8.6400e+02
        11     1.000(10e12.4)                   -1     VERTICAL HYDRAULIC CONDUCTIVITY Layer   9
  8.6400e+02  8.6400e+02  8.6400e+02  8.6400e+02  8.6400e+02  8.6400e+02  8.6400e+02  8.6400e+02  8.6400e+02  8.6400e+02
  8.6400e+02  8.6400e+02  8.6400e+02  8.6400e+02  8.6400e+02  8.6400e+02  8.6400e+02  8.6400e+02  8.6400e+02  8.6400e+02
  8.6400e+02
        11     1.000(10e12.4)                   -1     PRIMARY STORAGE Layer   9
  1.0000e-04  1.0000e-04  1.0000e-04  1.0000e-04  1.0000e-04  1.0000e-04  1.0000e-04  1.0000e-04  1.0000e-04  1.0000e-04
  1.0000e-04  1.0000e-04  1.0000e-04  1.0000e-04  1.0000e-04  1.0000e-04  1.0000e-04  1.0000e-04  1.0000e-04  1.0000e-04
  1.0000e-04
        11     1.000(10e12.4)                   -1     HYDRAULIC CONDUCTIVITY Layer  10
  8.6400e+02  8.6400e+02  8.6400e+02  8.6400e+02  8.6400e+02  8.6400e+02  8.6400e+02  8.6400e+02  8.6400e+02  8.6400e+02
  8.6400e+02  8.6400e+02  8.6400e+02  8.6400e+02  8.6400e+02  8.6400e+02  8.6400e+02  8.6400e+02  8.6400e+02  8.6400e+02
  8.6400e+02
        11     1.000(10e12.4)                   -1     VERTICAL HYDRAULIC CONDUCTIVITY Layer  10
  8.6400e+02  8.6400e+02  8.6400e+02  8.6400e+02  8.6400e+02  8.6400e+02  8.6400e+02  8.6400e+02  8.6400e+02  8.6400e+02
  8.6400e+02  8.6400e+02  8.6400e+02  8.6400e+02  8.6400e+02  8.6400e+02  8.6400e+02  8.6400e+02  8.6400e+02  8.6400e+02
  8.6400e+02
        11     1.000(10e12.4)                   -1     PRIMARY STORAGE Layer  10
  1.0000e-04  1.0000e-04  1.0000e-04  1.0000e-04  1.0000e-04  1.0000e-04  1.0000e-04  1.0000e-04  1.0000e-04  1.0000e-04
  1.0000e-04  1.0000e-04  1.0000e-04  1.0000e-04  1.0000e-04  1.0000e-04  1.0000e-04  1.0000e-04  1.0000e-04  1.0000e-04
  1.0000e-04
