From: <Saved by Windows Internet Explorer 7>
Subject: Online Guide to MODFLOW
Date: Wed, 8 Jul 2009 14:52:03 -0600
MIME-Version: 1.0
Content-Type: multipart/related;
	type="multipart/alternative";
	boundary="----=_NextPart_000_0000_01C9FFDB.A809B920"
X-MimeOLE: Produced By Microsoft MimeOLE V6.00.2900.5579

This is a multi-part message in MIME format.

------=_NextPart_000_0000_01C9FFDB.A809B920
Content-Type: image/gif
Content-Transfer-Encoding: base64
Content-Location: http://water.usgs.gov/nrp/gwsoftware/modflow2000/MFDOC/cicon9.gif

R0lGODlhEAAQAHcAACH5BAEAAAAALAAAAAAQABAAh////4CAgP//AAAAAAAA/8DAwABnTAJoVA1z
SRB3Th59WSuJYjOZZkCNcUslJUulh0yTgGChj2utoX6zoH+ysofBypnM/5/Fua/Pxb/Z0L/Z2dfn
4e709P/9/f///wAAAAAAAAAAAAAAAAAAAAAAAAAAAAAAAAAAAAAAAAAAAAAAAAAAAAAAAAAAAAAA
AAAAAAAAAAAAAAAAAAAAAAAAAAAAAAAAAAAAAAAAAAAAAAAAAAAAAAAAAAAAAAAAAAAAAAAAAAAA
AAAAAAAAAAAAAAAAAAAAAAAAAAAAAAAAAAAAAAAAAAAAAAAAAAAAAAAAAAAAAAAAAAAAAAAAAAAA
AAAAAAAAAAAAAAAAAAAAAAAAAAAAAAAAAAAAAAAAAAAAAAAAAAAAAAAAAAAAAAAAAAAAAAAAAAAA
AAAAAAAAAAAAAAAAAAAAAAAAAAAAAAAAAAAAAAAAAAAAAAAAAAAAAAAAAAAAAAAAAAAAAAAAAAAA
AAAAAAAAAAAAAAAAAAAAAAAAAAAAAAAAAAAAAAAAAAAAAAAAAAAAAAAAAAAAAAAAAAAAAAAAAAAA
AAAAAAAAAAAAAAAAAAAAAAAAAAAAAAAAAAAAAAAAAAAAAAAAAAAAAAAAAAAAAAAAAAAAAAAAAAAA
AAAAAAAAAAAAAAAAAAAAAAAAAAAAAAAAAAAAAAAAAAAAAAAAAAAAAAAAAAAAAAAAAAAAAAAAAAAA
AAAAAAAAAAAAAAAAAAAAAAAAAAAAAAAAAAAAAAAAAAAAAAAAAAAAAAAAAAAAAAAAAAAAAAAAAAAA
AAAAAAAAAAAAAAAAAAAAAAAAAAAAAAAAAAAAAAAAAAAAAAAAAAAAAAAAAAAAAAAAAAAAAAAAAAAA
AAAAAAAAAAAAAAAAAAAAAAAAAAAAAAAAAAAAAAAAAAAAAAAAAAAAAAAAAAAAAAAAAAAAAAAAAAAA
AAAAAAAAAAAAAAAAAAAAAAAAAAAAAAAAAAAAAAAAAAAAAAAAAAAAAAAAAAAAAAAAAAAAAAAAAAAA
AAhpAAEIBBCgoMGDAwcGGCiAYcGEBAE0FDhxgMWECwUS2EigYYEBGCVuFEkAwMeQAEamLHlSoUSG
I1sKzPhyo0eQLieqNIlzJsOfMiPqLCkwKE0BI2+GnPiyaE+CBaJKnfrUotWrViFqhRgQADs=

------=_NextPart_000_0000_01C9FFDB.A809B920
Content-Type: image/gif
Content-Transfer-Encoding: base64
Content-Location: http://water.usgs.gov/nrp/gwsoftware/modflow2000/MFDOC/cicon1.gif

R0lGODlhEAAQAHcAACH5BAEAAAAALAAAAAAQABAAh////wAAAIAAgMDAwICAgAD//wBnTAJoVA1z
SRB3Th59WSuJYjOZZkCNcUslJUulh0yTgGChj2utoX6zoH+ysofBypnM/5/Fua/Pxb/Z0L/Z2dfn
4e709P/9/f///wAAAAAAAAAAAAAAAAAAAAAAAAAAAAAAAAAAAAAAAAAAAAAAAAAAAAAAAAAAAAAA
AAAAAAAAAAAAAAAAAAAAAAAAAAAAAAAAAAAAAAAAAAAAAAAAAAAAAAAAAAAAAAAAAAAAAAAAAAAA
AAAAAAAAAAAAAAAAAAAAAAAAAAAAAAAAAAAAAAAAAAAAAAAAAAAAAAAAAAAAAAAAAAAAAAAAAAAA
AAAAAAAAAAAAAAAAAAAAAAAAAAAAAAAAAAAAAAAAAAAAAAAAAAAAAAAAAAAAAAAAAAAAAAAAAAAA
AAAAAAAAAAAAAAAAAAAAAAAAAAAAAAAAAAAAAAAAAAAAAAAAAAAAAAAAAAAAAAAAAAAAAAAAAAAA
AAAAAAAAAAAAAAAAAAAAAAAAAAAAAAAAAAAAAAAAAAAAAAAAAAAAAAAAAAAAAAAAAAAAAAAAAAAA
AAAAAAAAAAAAAAAAAAAAAAAAAAAAAAAAAAAAAAAAAAAAAAAAAAAAAAAAAAAAAAAAAAAAAAAAAAAA
AAAAAAAAAAAAAAAAAAAAAAAAAAAAAAAAAAAAAAAAAAAAAAAAAAAAAAAAAAAAAAAAAAAAAAAAAAAA
AAAAAAAAAAAAAAAAAAAAAAAAAAAAAAAAAAAAAAAAAAAAAAAAAAAAAAAAAAAAAAAAAAAAAAAAAAAA
AAAAAAAAAAAAAAAAAAAAAAAAAAAAAAAAAAAAAAAAAAAAAAAAAAAAAAAAAAAAAAAAAAAAAAAAAAAA
AAAAAAAAAAAAAAAAAAAAAAAAAAAAAAAAAAAAAAAAAAAAAAAAAAAAAAAAAAAAAAAAAAAAAAAAAAAA
AAAAAAAAAAAAAAAAAAAAAAAAAAAAAAAAAAAAAAAAAAAAAAAAAAAAAAAAAAAAAAAAAAAAAAAAAAAA
AAhgAAEIHAggQACCCAcaFCDgYEKBCxkydEgwokSJFAsOuMixoUIBGztihMgwpEiPASSa7GgwpUqW
AQiQfDkxJgCZM0saJDAAwACDHyfK7PkzY8GJPgsa/RgT6EOFTp9KJRgQADs=

------=_NextPart_000_0000_01C9FFDB.A809B920
Content-Type: text/css;
	charset="iso-8859-1"
Content-Transfer-Encoding: quoted-printable
Content-Location: http://water.usgs.gov/nrp/gwsoftware/modflow2000/MFDOC/default.css

HR {
	COLOR: #000000
}
BODY {
	FONT-WEIGHT: normal; FONT-SIZE: 12pt; COLOR: #000000; FONT-STYLE: =
normal; FONT-FAMILY: 'Times New Roman'; TEXT-DECORATION: none
}
TABLE {
	FONT-WEIGHT: normal; FONT-SIZE: 12pt; COLOR: #000000; FONT-STYLE: =
normal; FONT-FAMILY: 'Times New Roman'; TEXT-DECORATION: none
}
SPAN.f_Citation {
	FONT-STYLE: italic
}
SPAN.f_CodeExample {
	COLOR: #000000; FONT-FAMILY: 'Courier New'
}
SPAN.f_Comment {
=09
}
SPAN.f_CourierFixed {
	FONT-SIZE: 9pt; COLOR: #000000; FONT-FAMILY: 'Courier New'
}
SPAN.f_Heading1 {
	FONT-WEIGHT: bold; FONT-SIZE: 14pt
}
SPAN.f_Heading2 {
	FONT-WEIGHT: bold
}
SPAN.f_Heading3 {
	FONT-WEIGHT: bold; FONT-STYLE: italic
}
SPAN.f_ImageCaption {
	FONT-WEIGHT: bold
}
SPAN.f_Indentedbullet {
=09
}
SPAN.f_Keywords {
	FONT-WEIGHT: bold; FONT-STYLE: italic
}
SPAN.f_NewMaterials {
	FONT-WEIGHT: bold; COLOR: #000000; FONT-FAMILY: 'Courier New'
}
SPAN.f_NewStyle {
=09
}
SPAN.f_Notes {
=09
}
SPAN.f_TableHeader {
	FONT-WEIGHT: bold
}
P {
	PADDING-RIGHT: 0px; PADDING-LEFT: 0px; PADDING-BOTTOM: 0px; MARGIN: 0px =
0px 6px; TEXT-INDENT: 0px; PADDING-TOP: 0px; TEXT-ALIGN: left
}
.p_Citation {
=09
}
.p_CodeExample {
	BACKGROUND: #ccffff; MARGIN: 0px; WHITE-SPACE: nowrap
}
.p_Comment {
=09
}
.p_Heading1 {
	MARGIN: 12px 0px 6px
}
.p_Heading2 {
	MARGIN: 6px 0px
}
.p_Heading3 {
=09
}
.p_ImageCaption {
=09
}
.p_Indentedbullet {
	MARGIN: 0px 0px 6px 28px
}
.p_Keywords {
=09
}
.p_NewStyle {
=09
}
.p_Notes {
=09
}
.p_TableHeader {
	TEXT-ALIGN: center
}

------=_NextPart_000_0000_01C9FFDB.A809B920
Content-Type: multipart/alternative;
	boundary="----=_NextPart_001_0007_01C9FFDB.A809B920"


------=_NextPart_001_0007_01C9FFDB.A809B920
Content-Type: text/html;
	charset="utf-8"
Content-Transfer-Encoding: quoted-printable
Content-Location: http://water.usgs.gov/nrp/gwsoftware/modflow2000/MFDOC/index.html

=EF=BB=BF<!DOCTYPE HTML PUBLIC "-//W3C//DTD HTML 4.01 Frameset//EN" =
"http://www.w3c.org/TR/1999/REC-html401-19991224/frameset.dtd">
<HTML><HEAD><TITLE>Online Guide to MODFLOW</TITLE><!-- saved from =
url=3D(0029)http://www.helpandmanual.com/ -->
<META http-equiv=3DContent-Type content=3D"text/html; charset=3DUTF-8">
<SCRIPT=20
src=3D"http://water.usgs.gov/nrp/gwsoftware/modflow2000/MFDOC/modflowguid=
e_navigation.js"=20
type=3Dtext/javascript></SCRIPT>

<SCRIPT type=3Dtext/javascript>
<!--
var defaulttopic=3D"introduction.htm";
if (top.location.href.lastIndexOf("?") > 0) =
defaulttopic=3Dtop.location.href.substring(top.location.href.lastIndexOf(=
"?")+1,top.location.href.length).replace(/:/g,"");
document.write('<frameset cols=3D"30%,*" frameborder=3D"1" =
framespacing=3D"1">');
if (document.getElementById) {
  document.write('<frame name=3D"hmnavigation" =
src=3D"modflowguide_content_dyn.html" title=3D"Navigation frame">'); }
else {
  document.write('<frame name=3D"hmnavigation" =
src=3D"modflowguide_content_static.html" title=3D"Navigation frame">'); =
}
document.write('<frame name=3D"hmcontent" src=3D"' + defaulttopic + '" =
title=3D"content frame">');
document.write('</frameset>');
//-->
</SCRIPT>
<NOSCRIPT>
<META content=3D"MSHTML 6.00.6000.16850" =
name=3DGENERATOR></HEAD><FRAMESET=20
frameSpacing=3D1 frameBorder=3D1 cols=3D30%,*><FRAME title=3D"Navigation =
frame"=20
name=3Dhmnavigation=20
src=3D"http://water.usgs.gov/nrp/gwsoftware/modflow2000/MFDOC/modflowguid=
e_content_dyn.html"><FRAME=20
title=3D"Content frame" name=3Dhmcontent=20
src=3D"http://water.usgs.gov/nrp/gwsoftware/modflow2000/MFDOC/introductio=
n.htm"><NOFRAMES></NOFRAMES></FRAMESET></NOSCRIPT></HTML>

------=_NextPart_001_0007_01C9FFDB.A809B920
Content-Type: text/html;
	charset="utf-8"
Content-Transfer-Encoding: quoted-printable
Content-Location: http://water.usgs.gov/nrp/gwsoftware/modflow2000/MFDOC/modflowguide_content_dyn.html

=EF=BB=BF<!DOCTYPE HTML PUBLIC "-//W3C//DTD HTML 4.0 Transitional//EN">
<HTML><HEAD><TITLE>Online Guide to MODFLOW</TITLE><!-- saved from =
url=3D(0029)http://www.helpandmanual.com/ -->
<META http-equiv=3DContent-Type content=3D"text/html; =
charset=3DUTF-8"><!-- This line includes the general project style sheet =
(not required) -->
<META http-equiv=3DContent-Style-Type content=3Dtext/css><LINK=20
href=3D"http://water.usgs.gov/nrp/gwsoftware/modflow2000/MFDOC/default.cs=
s"=20
type=3Dtext/css rel=3Dstylesheet><!-- This block defines the styles of =
the TOC headings, change them as needed -->
<STYLE type=3Dtext/css>.navtitle {
	FONT-WEIGHT: bold; FONT-SIZE: 14pt; MARGIN-BOTTOM: 16px
}
.navbar {
	FONT-SIZE: 10pt
}
.heading1 {
	FONT-WEIGHT: normal; FONT-SIZE: 10pt; COLOR: #000000; FONT-FAMILY: =
Arial,Helvetica; TEXT-DECORATION: none
}
.heading2 {
	FONT-WEIGHT: normal; FONT-SIZE: 10pt; COLOR: #000000; FONT-FAMILY: =
Arial,Helvetica; TEXT-DECORATION: none
}
.heading3 {
	FONT-WEIGHT: normal; FONT-SIZE: 10pt; COLOR: #000000; FONT-FAMILY: =
Arial,Helvetica; TEXT-DECORATION: none
}
.heading4 {
	FONT-WEIGHT: normal; FONT-SIZE: 10pt; COLOR: #000000; FONT-FAMILY: =
Arial,Helvetica; TEXT-DECORATION: none
}
.heading5 {
	FONT-WEIGHT: normal; FONT-SIZE: 10pt; COLOR: #000000; FONT-FAMILY: =
Arial,Helvetica; TEXT-DECORATION: none
}
.heading6 {
	FONT-WEIGHT: normal; FONT-SIZE: 10pt; COLOR: #000000; FONT-FAMILY: =
Arial,Helvetica; TEXT-DECORATION: none
}
.hilight1 {
	FONT-WEIGHT: normal; FONT-SIZE: 10pt; BACKGROUND: #002682; COLOR: =
#ffffff; FONT-FAMILY: Arial,Helvetica; TEXT-DECORATION: none
}
.hilight2 {
	FONT-WEIGHT: normal; FONT-SIZE: 10pt; BACKGROUND: #002682; COLOR: =
#ffffff; FONT-FAMILY: Arial,Helvetica; TEXT-DECORATION: none
}
.hilight3 {
	FONT-WEIGHT: normal; FONT-SIZE: 10pt; BACKGROUND: #002682; COLOR: =
#ffffff; FONT-FAMILY: Arial,Helvetica; TEXT-DECORATION: none
}
.hilight4 {
	FONT-WEIGHT: normal; FONT-SIZE: 10pt; BACKGROUND: #002682; COLOR: =
#ffffff; FONT-FAMILY: Arial,Helvetica; TEXT-DECORATION: none
}
.hilight5 {
	FONT-WEIGHT: normal; FONT-SIZE: 10pt; BACKGROUND: #002682; COLOR: =
#ffffff; FONT-FAMILY: Arial,Helvetica; TEXT-DECORATION: none
}
.hilight6 {
	FONT-WEIGHT: normal; FONT-SIZE: 10pt; BACKGROUND: #002682; COLOR: =
#ffffff; FONT-FAMILY: Arial,Helvetica; TEXT-DECORATION: none
}
TD.toc {
	PADDING-RIGHT: 4px; PADDING-BOTTOM: 2px
}
</STYLE>

<META content=3D"MSHTML 6.00.6000.16850" name=3DGENERATOR></HEAD>
<BODY style=3D"BACKGROUND: #ffffff"=20
onload=3D"parent.loadstate(document.getElementById('tree'));"=20
onunload=3D"parent.savestate(document.getElementById('tree'));">
<P class=3Dnavtitle>Online Guide to MODFLOW</P>
<P class=3Dnavbar><B>Contents</B> | <A=20
href=3D"http://water.usgs.gov/nrp/gwsoftware/modflow2000/MFDOC/modflowgui=
de_kwindex_dyn.html">Index</A>=20
| <A=20
href=3D"http://water.usgs.gov/nrp/gwsoftware/modflow2000/MFDOC/modflowgui=
de_ftsearch.html">Search</A>=20
</P>
<HR SIZE=3D1>
<!-- Place holder for the TOC - this variable is REQUIRED! -->
<DIV id=3Dtree>
<TABLE class=3Dtoc cellSpacing=3D0 cellPadding=3D0 border=3D0>
  <TBODY>
  <TR vAlign=3Dtop>
    <TD class=3Dtoc align=3Dright width=3D20><SPAN class=3Dheading1><IMG =
class=3Dicon=20
      alt=3D""=20
      =
src=3D"http://water.usgs.gov/nrp/gwsoftware/modflow2000/MFDOC/cicon9.gif"=
=20
      border=3D0></SPAN></TD>
    <TD class=3Dtoc align=3Dleft><A id=3Da1=20
      ondblclick=3D"javascript:parent.toggle('div1')"=20
      onclick=3D"return parent.hilight('s1')"=20
      =
href=3D"http://water.usgs.gov/nrp/gwsoftware/modflow2000/MFDOC/introducti=
on.htm"=20
      target=3Dhmcontent><SPAN class=3Dheading1=20
  id=3Ds1>Introduction</SPAN></A></TD></TR></TBODY></TABLE>
<TABLE class=3Dtoc cellSpacing=3D0 cellPadding=3D0 border=3D0>
  <TBODY>
  <TR vAlign=3Dtop>
    <TD class=3Dtoc align=3Dright width=3D20><SPAN class=3Dheading1><IMG =
class=3Dicon=20
      alt=3D""=20
      =
src=3D"http://water.usgs.gov/nrp/gwsoftware/modflow2000/MFDOC/cicon9.gif"=
=20
      border=3D0></SPAN></TD>
    <TD class=3Dtoc align=3Dleft><A id=3Da2=20
      ondblclick=3D"javascript:parent.toggle('div2')"=20
      onclick=3D"return parent.hilight('s2')"=20
      =
href=3D"http://water.usgs.gov/nrp/gwsoftware/modflow2000/MFDOC/frequently=
_asked_questions.htm"=20
      target=3Dhmcontent><SPAN class=3Dheading1 id=3Ds2>Frequently Asked =

      Questions</SPAN></A></TD></TR></TBODY></TABLE>
<TABLE class=3Dtoc cellSpacing=3D0 cellPadding=3D0 border=3D0>
  <TBODY>
  <TR vAlign=3Dtop>
    <TD class=3Dtoc align=3Dright width=3D20><SPAN class=3Dheading1><IMG =
class=3Dicon=20
      alt=3D""=20
      =
src=3D"http://water.usgs.gov/nrp/gwsoftware/modflow2000/MFDOC/cicon9.gif"=
=20
      border=3D0></SPAN></TD>
    <TD class=3Dtoc align=3Dleft><A id=3Da3=20
      ondblclick=3D"javascript:parent.toggle('div3')"=20
      onclick=3D"return parent.hilight('s3')"=20
      =
href=3D"http://water.usgs.gov/nrp/gwsoftware/modflow2000/MFDOC/package_in=
compatibilities.htm"=20
      target=3Dhmcontent><SPAN class=3Dheading1 id=3Ds3>Package=20
      Incompatibilities</SPAN></A></TD></TR></TBODY></TABLE>
<TABLE class=3Dtoc cellSpacing=3D0 cellPadding=3D0 border=3D0>
  <TBODY>
  <TR vAlign=3Dtop>
    <TD class=3Dtoc align=3Dright width=3D20><SPAN class=3Dheading1><IMG =
class=3Dicon=20
      alt=3D""=20
      =
src=3D"http://water.usgs.gov/nrp/gwsoftware/modflow2000/MFDOC/cicon9.gif"=
=20
      border=3D0></SPAN></TD>
    <TD class=3Dtoc align=3Dleft><A id=3Da4=20
      ondblclick=3D"javascript:parent.toggle('div4')"=20
      onclick=3D"return parent.hilight('s4')"=20
      =
href=3D"http://water.usgs.gov/nrp/gwsoftware/modflow2000/MFDOC/suggestion=
s_on_compiling.htm"=20
      target=3Dhmcontent><SPAN class=3Dheading1 id=3Ds4>Suggestions on=20
      Compiling</SPAN></A></TD></TR></TBODY></TABLE>
<TABLE class=3Dtoc cellSpacing=3D0 cellPadding=3D0 border=3D0>
  <TBODY>
  <TR vAlign=3Dtop>
    <TD class=3Dtoc align=3Dright width=3D20><SPAN class=3Dheading1><IMG =
class=3Dicon=20
      alt=3D""=20
      =
src=3D"http://water.usgs.gov/nrp/gwsoftware/modflow2000/MFDOC/cicon9.gif"=
=20
      border=3D0></SPAN></TD>
    <TD class=3Dtoc align=3Dleft><A id=3Da5=20
      ondblclick=3D"javascript:parent.toggle('div5')"=20
      onclick=3D"return parent.hilight('s5')"=20
      =
href=3D"http://water.usgs.gov/nrp/gwsoftware/modflow2000/MFDOC/miscellane=
ous.htm"=20
      target=3Dhmcontent><SPAN class=3Dheading1=20
  id=3Ds5>Miscellaneous</SPAN></A></TD></TR></TBODY></TABLE>
<TABLE class=3Dtoc cellSpacing=3D0 cellPadding=3D0 border=3D0>
  <TBODY>
  <TR vAlign=3Dtop>
    <TD class=3Dtoc align=3Dright width=3D20><SPAN class=3Dheading1><IMG =
class=3Dicon=20
      alt=3D""=20
      =
src=3D"http://water.usgs.gov/nrp/gwsoftware/modflow2000/MFDOC/cicon9.gif"=
=20
      border=3D0></SPAN></TD>
    <TD class=3Dtoc align=3Dleft><A id=3Da6=20
      ondblclick=3D"javascript:parent.toggle('div6')"=20
      onclick=3D"return parent.hilight('s6')"=20
      =
href=3D"http://water.usgs.gov/nrp/gwsoftware/modflow2000/MFDOC/name_file.=
htm"=20
      target=3Dhmcontent><SPAN class=3Dheading1 id=3Ds6>Name=20
  File</SPAN></A></TD></TR></TBODY></TABLE>
<TABLE class=3Dtoc cellSpacing=3D0 cellPadding=3D0 border=3D0>
  <TBODY>
  <TR vAlign=3Dtop>
    <TD class=3Dtoc align=3Dright width=3D20><SPAN class=3Dheading1><IMG =
class=3Dicon=20
      alt=3D""=20
      =
src=3D"http://water.usgs.gov/nrp/gwsoftware/modflow2000/MFDOC/cicon9.gif"=
=20
      border=3D0></SPAN></TD>
    <TD class=3Dtoc align=3Dleft><A id=3Da7=20
      ondblclick=3D"javascript:parent.toggle('div7')"=20
      onclick=3D"return parent.hilight('s7')"=20
      =
href=3D"http://water.usgs.gov/nrp/gwsoftware/modflow2000/MFDOC/array_read=
ing_utility_modules.htm"=20
      target=3Dhmcontent><SPAN class=3Dheading1 id=3Ds7>Array Reading =
Utility=20
      Modules</SPAN></A></TD></TR></TBODY></TABLE>
<TABLE class=3Dtoc cellSpacing=3D0 cellPadding=3D0 border=3D0>
  <TBODY>
  <TR vAlign=3Dtop>
    <TD class=3Dtoc align=3Dright width=3D20><SPAN class=3Dheading1><IMG =
class=3Dicon=20
      alt=3D""=20
      =
src=3D"http://water.usgs.gov/nrp/gwsoftware/modflow2000/MFDOC/cicon9.gif"=
=20
      border=3D0></SPAN></TD>
    <TD class=3Dtoc align=3Dleft><A id=3Da8=20
      ondblclick=3D"javascript:parent.toggle('div8')"=20
      onclick=3D"return parent.hilight('s8')"=20
      =
href=3D"http://water.usgs.gov/nrp/gwsoftware/modflow2000/MFDOC/list_utili=
ty_module.htm"=20
      target=3Dhmcontent><SPAN class=3Dheading1 id=3Ds8>List Utility=20
    Module</SPAN></A></TD></TR></TBODY></TABLE>
<TABLE class=3Dtoc cellSpacing=3D0 cellPadding=3D0 border=3D0>
  <TBODY>
  <TR vAlign=3Dtop>
    <TD class=3Dtoc align=3Dright width=3D20><SPAN class=3Dheading1><IMG =
class=3Dicon=20
      alt=3D""=20
      =
src=3D"http://water.usgs.gov/nrp/gwsoftware/modflow2000/MFDOC/cicon9.gif"=
=20
      border=3D0></SPAN></TD>
    <TD class=3Dtoc align=3Dleft><A id=3Da9=20
      ondblclick=3D"javascript:parent.toggle('div9')"=20
      onclick=3D"return parent.hilight('s9')"=20
      =
href=3D"http://water.usgs.gov/nrp/gwsoftware/modflow2000/MFDOC/input_file=
s_supported_in_vario.htm"=20
      target=3Dhmcontent><SPAN class=3Dheading1 id=3Ds9>Input Files =
Supported in=20
      Various Versions of MODFLOW</SPAN></A></TD></TR></TBODY></TABLE>
<TABLE class=3Dtoc cellSpacing=3D0 cellPadding=3D0 border=3D0>
  <TBODY>
  <TR vAlign=3Dtop>
    <TD class=3Dtoc align=3Dright width=3D20><SPAN class=3Dheading1><A=20
      href=3D"javascript:parent.toggle('div10')"><IMG class=3Dicon =
id=3Di10 alt=3D""=20
      =
src=3D"http://water.usgs.gov/nrp/gwsoftware/modflow2000/MFDOC/cicon1.gif"=
=20
      border=3D0 name=3Dcicon1.gif:cicon2.gif></A></SPAN></TD>
    <TD class=3Dtoc align=3Dleft><A id=3Da10=20
      ondblclick=3D"javascript:parent.toggle('div10')"=20
      onclick=3D"return parent.hilight('s10')"=20
      =
href=3D"http://water.usgs.gov/nrp/gwsoftware/modflow2000/MFDOC/ground_wat=
er_flow_process.htm"=20
      target=3Dhmcontent><SPAN class=3Dheading1 id=3Ds10>Ground-Water =
Flow=20
      Process</SPAN></A></TD></TR></TBODY></TABLE>
<DIV id=3Ddiv10 style=3D"DISPLAY: none">
<TABLE class=3Dtoc cellSpacing=3D0 cellPadding=3D0 border=3D0>
  <TBODY>
  <TR vAlign=3Dtop>
    <TD class=3Dtoc align=3Dright width=3D40><SPAN class=3Dheading2><IMG =
class=3Dicon=20
      alt=3D""=20
      =
src=3D"http://water.usgs.gov/nrp/gwsoftware/modflow2000/MFDOC/cicon9.gif"=
=20
      border=3D0></SPAN></TD>
    <TD class=3Dtoc align=3Dleft><A id=3Da10.1=20
      ondblclick=3D"javascript:parent.toggle('div10.1')"=20
      onclick=3D"return parent.hilight('s10.1')"=20
      =
href=3D"http://water.usgs.gov/nrp/gwsoftware/modflow2000/MFDOC/bas6.htm" =

      target=3Dhmcontent><SPAN class=3Dheading2 id=3Ds10.1>BAS6 - Basic=20
      Package</SPAN></A></TD></TR></TBODY></TABLE>
<TABLE class=3Dtoc cellSpacing=3D0 cellPadding=3D0 border=3D0>
  <TBODY>
  <TR vAlign=3Dtop>
    <TD class=3Dtoc align=3Dright width=3D40><SPAN class=3Dheading2><IMG =
class=3Dicon=20
      alt=3D""=20
      =
src=3D"http://water.usgs.gov/nrp/gwsoftware/modflow2000/MFDOC/cicon9.gif"=
=20
      border=3D0></SPAN></TD>
    <TD class=3Dtoc align=3Dleft><A id=3Da10.2=20
      ondblclick=3D"javascript:parent.toggle('div10.2')"=20
      onclick=3D"return parent.hilight('s10.2')"=20
      =
href=3D"http://water.usgs.gov/nrp/gwsoftware/modflow2000/MFDOC/dis.htm"=20
      target=3Dhmcontent><SPAN class=3Dheading2 id=3Ds10.2>DIS - =
Discretization=20
      File</SPAN></A></TD></TR></TBODY></TABLE>
<TABLE class=3Dtoc cellSpacing=3D0 cellPadding=3D0 border=3D0>
  <TBODY>
  <TR vAlign=3Dtop>
    <TD class=3Dtoc align=3Dright width=3D40><SPAN class=3Dheading2><IMG =
class=3Dicon=20
      alt=3D""=20
      =
src=3D"http://water.usgs.gov/nrp/gwsoftware/modflow2000/MFDOC/cicon9.gif"=
=20
      border=3D0></SPAN></TD>
    <TD class=3Dtoc align=3Dleft><A id=3Da10.3=20
      ondblclick=3D"javascript:parent.toggle('div10.3')"=20
      onclick=3D"return parent.hilight('s10.3')"=20
      =
href=3D"http://water.usgs.gov/nrp/gwsoftware/modflow2000/MFDOC/mult.htm" =

      target=3Dhmcontent><SPAN class=3Dheading2 id=3Ds10.3>MULT - =
Multiplier=20
      File</SPAN></A></TD></TR></TBODY></TABLE>
<TABLE class=3Dtoc cellSpacing=3D0 cellPadding=3D0 border=3D0>
  <TBODY>
  <TR vAlign=3Dtop>
    <TD class=3Dtoc align=3Dright width=3D40><SPAN class=3Dheading2><IMG =
class=3Dicon=20
      alt=3D""=20
      =
src=3D"http://water.usgs.gov/nrp/gwsoftware/modflow2000/MFDOC/cicon9.gif"=
=20
      border=3D0></SPAN></TD>
    <TD class=3Dtoc align=3Dleft><A id=3Da10.4=20
      ondblclick=3D"javascript:parent.toggle('div10.4')"=20
      onclick=3D"return parent.hilight('s10.4')"=20
      =
href=3D"http://water.usgs.gov/nrp/gwsoftware/modflow2000/MFDOC/zone.htm" =

      target=3Dhmcontent><SPAN class=3Dheading2 id=3Ds10.4>ZONE - Zone=20
    File</SPAN></A></TD></TR></TBODY></TABLE>
<TABLE class=3Dtoc cellSpacing=3D0 cellPadding=3D0 border=3D0>
  <TBODY>
  <TR vAlign=3Dtop>
    <TD class=3Dtoc align=3Dright width=3D40><SPAN class=3Dheading2><IMG =
class=3Dicon=20
      alt=3D""=20
      =
src=3D"http://water.usgs.gov/nrp/gwsoftware/modflow2000/MFDOC/cicon9.gif"=
=20
      border=3D0></SPAN></TD>
    <TD class=3Dtoc align=3Dleft><A id=3Da10.5=20
      ondblclick=3D"javascript:parent.toggle('div10.5')"=20
      onclick=3D"return parent.hilight('s10.5')"=20
      =
href=3D"http://water.usgs.gov/nrp/gwsoftware/modflow2000/MFDOC/parameter_=
value_file.htm"=20
      target=3Dhmcontent><SPAN class=3Dheading2 id=3Ds10.5>PVAL - =
Parameter Value=20
      File</SPAN></A></TD></TR></TBODY></TABLE>
<TABLE class=3Dtoc cellSpacing=3D0 cellPadding=3D0 border=3D0>
  <TBODY>
  <TR vAlign=3Dtop>
    <TD class=3Dtoc align=3Dright width=3D40><SPAN class=3Dheading2><A=20
      href=3D"javascript:parent.toggle('div10.6')"><IMG class=3Dicon =
id=3Di10.6 alt=3D""=20
      =
src=3D"http://water.usgs.gov/nrp/gwsoftware/modflow2000/MFDOC/cicon1.gif"=
=20
      border=3D0 name=3Dcicon1.gif:cicon2.gif></A></SPAN></TD>
    <TD class=3Dtoc align=3Dleft><A id=3Da10.6=20
      ondblclick=3D"javascript:parent.toggle('div10.6')"=20
      onclick=3D"return parent.hilight('s10.6')"=20
      =
href=3D"http://water.usgs.gov/nrp/gwsoftware/modflow2000/MFDOC/ground_wat=
er_flow_packages.htm"=20
      target=3Dhmcontent><SPAN class=3Dheading2 id=3Ds10.6>Ground-Water =
Flow=20
      Packages</SPAN></A></TD></TR></TBODY></TABLE>
<DIV id=3Ddiv10.6 style=3D"DISPLAY: none">
<TABLE class=3Dtoc cellSpacing=3D0 cellPadding=3D0 border=3D0>
  <TBODY>
  <TR vAlign=3Dtop>
    <TD class=3Dtoc align=3Dright width=3D60><SPAN class=3Dheading3><IMG =
class=3Dicon=20
      alt=3D""=20
      =
src=3D"http://water.usgs.gov/nrp/gwsoftware/modflow2000/MFDOC/cicon9.gif"=
=20
      border=3D0></SPAN></TD>
    <TD class=3Dtoc align=3Dleft><A id=3Da10.6.1=20
      ondblclick=3D"javascript:parent.toggle('div10.6.1')"=20
      onclick=3D"return parent.hilight('s10.6.1')"=20
      =
href=3D"http://water.usgs.gov/nrp/gwsoftware/modflow2000/MFDOC/bcf.htm"=20
      target=3Dhmcontent><SPAN class=3Dheading3 id=3Ds10.6.1>BCF6 - =
Block-Centered=20
      Flow Package</SPAN></A></TD></TR></TBODY></TABLE>
<TABLE class=3Dtoc cellSpacing=3D0 cellPadding=3D0 border=3D0>
  <TBODY>
  <TR vAlign=3Dtop>
    <TD class=3Dtoc align=3Dright width=3D60><SPAN class=3Dheading3><IMG =
class=3Dicon=20
      alt=3D""=20
      =
src=3D"http://water.usgs.gov/nrp/gwsoftware/modflow2000/MFDOC/cicon9.gif"=
=20
      border=3D0></SPAN></TD>
    <TD class=3Dtoc align=3Dleft><A id=3Da10.6.2=20
      ondblclick=3D"javascript:parent.toggle('div10.6.2')"=20
      onclick=3D"return parent.hilight('s10.6.2')"=20
      =
href=3D"http://water.usgs.gov/nrp/gwsoftware/modflow2000/MFDOC/lpf.htm"=20
      target=3Dhmcontent><SPAN class=3Dheading3 id=3Ds10.6.2>LPF - =
Layer-Property Flow=20
      Package</SPAN></A></TD></TR></TBODY></TABLE>
<TABLE class=3Dtoc cellSpacing=3D0 cellPadding=3D0 border=3D0>
  <TBODY>
  <TR vAlign=3Dtop>
    <TD class=3Dtoc align=3Dright width=3D60><SPAN class=3Dheading3><A=20
      href=3D"javascript:parent.toggle('div10.6.3')"><IMG class=3Dicon =
id=3Di10.6.3=20
      alt=3D""=20
      =
src=3D"http://water.usgs.gov/nrp/gwsoftware/modflow2000/MFDOC/cicon1.gif"=
=20
      border=3D0 name=3Dcicon1.gif:cicon2.gif></A></SPAN></TD>
    <TD class=3Dtoc align=3Dleft><A id=3Da10.6.3=20
      ondblclick=3D"javascript:parent.toggle('div10.6.3')"=20
      onclick=3D"return parent.hilight('s10.6.3')"=20
      =
href=3D"http://water.usgs.gov/nrp/gwsoftware/modflow2000/MFDOC/huf2.htm" =

      target=3Dhmcontent><SPAN class=3Dheading3 id=3Ds10.6.3>HUF2 - =
Hydrogeologic Unit=20
      Flow Package</SPAN></A></TD></TR></TBODY></TABLE>
<DIV id=3Ddiv10.6.3 style=3D"DISPLAY: none">
<TABLE class=3Dtoc cellSpacing=3D0 cellPadding=3D0 border=3D0>
  <TBODY>
  <TR vAlign=3Dtop>
    <TD class=3Dtoc align=3Dright width=3D80><SPAN class=3Dheading4><IMG =
class=3Dicon=20
      alt=3D""=20
      =
src=3D"http://water.usgs.gov/nrp/gwsoftware/modflow2000/MFDOC/cicon9.gif"=
=20
      border=3D0></SPAN></TD>
    <TD class=3Dtoc align=3Dleft><A id=3Da10.6.3.1=20
      ondblclick=3D"javascript:parent.toggle('div10.6.3.1')"=20
      onclick=3D"return parent.hilight('s10.6.3.1')"=20
      =
href=3D"http://water.usgs.gov/nrp/gwsoftware/modflow2000/MFDOC/kdep.htm" =

      target=3Dhmcontent><SPAN class=3Dheading4 id=3Ds10.6.3.1>KDEP -=20
      Hydraulic-Conductivity Depth-Dependence=20
Capability</SPAN></A></TD></TR></TBODY></TABLE>
<TABLE class=3Dtoc cellSpacing=3D0 cellPadding=3D0 border=3D0>
  <TBODY>
  <TR vAlign=3Dtop>
    <TD class=3Dtoc align=3Dright width=3D80><SPAN class=3Dheading4><IMG =
class=3Dicon=20
      alt=3D""=20
      =
src=3D"http://water.usgs.gov/nrp/gwsoftware/modflow2000/MFDOC/cicon9.gif"=
=20
      border=3D0></SPAN></TD>
    <TD class=3Dtoc align=3Dleft><A id=3Da10.6.3.2=20
      ondblclick=3D"javascript:parent.toggle('div10.6.3.2')"=20
      onclick=3D"return parent.hilight('s10.6.3.2')"=20
      =
href=3D"http://water.usgs.gov/nrp/gwsoftware/modflow2000/MFDOC/lvda.htm" =

      target=3Dhmcontent><SPAN class=3Dheading4 id=3Ds10.6.3.2>LVDA - =
Model-Layer=20
      Variable-Direction Horizontal Anisotropy=20
  Capability</SPAN></A></TD></TR></TBODY></TABLE></DIV>
<TABLE class=3Dtoc cellSpacing=3D0 cellPadding=3D0 border=3D0>
  <TBODY>
  <TR vAlign=3Dtop>
    <TD class=3Dtoc align=3Dright width=3D60><SPAN class=3Dheading3><IMG =
class=3Dicon=20
      alt=3D""=20
      =
src=3D"http://water.usgs.gov/nrp/gwsoftware/modflow2000/MFDOC/cicon9.gif"=
=20
      border=3D0></SPAN></TD>
    <TD class=3Dtoc align=3Dleft><A id=3Da10.6.4=20
      ondblclick=3D"javascript:parent.toggle('div10.6.4')"=20
      onclick=3D"return parent.hilight('s10.6.4')"=20
      =
href=3D"http://water.usgs.gov/nrp/gwsoftware/modflow2000/MFDOC/hfb6.htm" =

      target=3Dhmcontent><SPAN class=3Dheading3 id=3Ds10.6.4>HFB6 - =
Horizontal Flow=20
      Barrier Package</SPAN></A></TD></TR></TBODY></TABLE>
<TABLE class=3Dtoc cellSpacing=3D0 cellPadding=3D0 border=3D0>
  <TBODY>
  <TR vAlign=3Dtop>
    <TD class=3Dtoc align=3Dright width=3D60><SPAN class=3Dheading3><IMG =
class=3Dicon=20
      alt=3D""=20
      =
src=3D"http://water.usgs.gov/nrp/gwsoftware/modflow2000/MFDOC/cicon9.gif"=
=20
      border=3D0></SPAN></TD>
    <TD class=3Dtoc align=3Dleft><A id=3Da10.6.5=20
      ondblclick=3D"javascript:parent.toggle('div10.6.5')"=20
      onclick=3D"return parent.hilight('s10.6.5')"=20
      =
href=3D"http://water.usgs.gov/nrp/gwsoftware/modflow2000/MFDOC/uzf_unsatu=
rated_zone_flow_pack.htm"=20
      target=3Dhmcontent><SPAN class=3Dheading3 id=3Ds10.6.5>UZF - =
Unsaturated-Zone=20
      Flow Package</SPAN></A></TD></TR></TBODY></TABLE></DIV>
<TABLE class=3Dtoc cellSpacing=3D0 cellPadding=3D0 border=3D0>
  <TBODY>
  <TR vAlign=3Dtop>
    <TD class=3Dtoc align=3Dright width=3D40><SPAN class=3Dheading2><A=20
      href=3D"javascript:parent.toggle('div10.7')"><IMG class=3Dicon =
id=3Di10.7 alt=3D""=20
      =
src=3D"http://water.usgs.gov/nrp/gwsoftware/modflow2000/MFDOC/cicon1.gif"=
=20
      border=3D0 name=3Dcicon1.gif:cicon2.gif></A></SPAN></TD>
    <TD class=3Dtoc align=3Dleft><A id=3Da10.7=20
      ondblclick=3D"javascript:parent.toggle('div10.7')"=20
      onclick=3D"return parent.hilight('s10.7')"=20
      =
href=3D"http://water.usgs.gov/nrp/gwsoftware/modflow2000/MFDOC/boundary_c=
ondition_packages.htm"=20
      target=3Dhmcontent><SPAN class=3Dheading2 id=3Ds10.7>Boundary =
Condition=20
      Packages</SPAN></A></TD></TR></TBODY></TABLE>
<DIV id=3Ddiv10.7 style=3D"DISPLAY: none">
<TABLE class=3Dtoc cellSpacing=3D0 cellPadding=3D0 border=3D0>
  <TBODY>
  <TR vAlign=3Dtop>
    <TD class=3Dtoc align=3Dright width=3D60><SPAN class=3Dheading3><A=20
      href=3D"javascript:parent.toggle('div10.7.1')"><IMG class=3Dicon =
id=3Di10.7.1=20
      alt=3D""=20
      =
src=3D"http://water.usgs.gov/nrp/gwsoftware/modflow2000/MFDOC/cicon1.gif"=
=20
      border=3D0 name=3Dcicon1.gif:cicon2.gif></A></SPAN></TD>
    <TD class=3Dtoc align=3Dleft><A id=3Da10.7.1=20
      ondblclick=3D"javascript:parent.toggle('div10.7.1')"=20
      onclick=3D"return parent.hilight('s10.7.1')"=20
      =
href=3D"http://water.usgs.gov/nrp/gwsoftware/modflow2000/MFDOC/specified_=
head_boundaries.htm"=20
      target=3Dhmcontent><SPAN class=3Dheading3 id=3Ds10.7.1>Specified =
Head=20
      Boundaries</SPAN></A></TD></TR></TBODY></TABLE>
<DIV id=3Ddiv10.7.1 style=3D"DISPLAY: none">
<TABLE class=3Dtoc cellSpacing=3D0 cellPadding=3D0 border=3D0>
  <TBODY>
  <TR vAlign=3Dtop>
    <TD class=3Dtoc align=3Dright width=3D80><SPAN class=3Dheading4><IMG =
class=3Dicon=20
      alt=3D""=20
      =
src=3D"http://water.usgs.gov/nrp/gwsoftware/modflow2000/MFDOC/cicon9.gif"=
=20
      border=3D0></SPAN></TD>
    <TD class=3Dtoc align=3Dleft><A id=3Da10.7.1.1=20
      ondblclick=3D"javascript:parent.toggle('div10.7.1.1')"=20
      onclick=3D"return parent.hilight('s10.7.1.1')"=20