# MODFLOW2000 Layer Property Flow (LPF) Package
        50  -1.000000e+030         0
  0  0  0  0  0  0  0  0  0  0  0  0  0  0  0  0  0  0  0  0  0  0  0
  0  0  0  0  0  0  0  0  0  0  0  0  0  0  0  0  0  0  0  0  0  0  0
  1.000000e+000  1.000000e+000  1.000000e+000  1.000000e+000  1.000000e+000  1.000000e+000  1.000000e+000  1.000000e+000  1.000000e+000  1.000000e+000  1.000000e+000  1.000000e+000  1.000000e+000  1.000000e+000  1.000000e+000  1.000000e+000  1.000000e+000  1.000000e+000  1.000000e+000  1.000000e+000
  1.000000e+000  1.000000e+000  1.000000e+000
 0 0 0 0 0 0 0 0 0 0 0 0 0 0 0 0 0 0 0 0 0 0 0
 0 0 0 0 0 0 0 0 0 0 0 0 0 0 0 0 0 0 0 0 0 0 0
CONSTANT      50.3551506   HYDRAULIC CONDUCTIVITY Layer            1
CONSTANT      .503551506   VERTICAL HYDRAULIC CONDUCTIVITY Layer   1
CONSTANT      1.00000E-5   PRIMARY STORAGE Layer                   1
CONSTANT      50.3551506   HYDRAULIC CONDUCTIVITY Layer            2
CONSTANT      .503551506   VERTICAL HYDRAULIC CONDUCTIVITY Layer   2
CONSTANT      1.00000E-5   PRIMARY STORAGE Layer                   2
CONSTANT      50.3551506   HYDRAULIC CONDUCTIVITY Layer            3
CONSTANT      .503551506   VERTICAL HYDRAULIC CONDUCTIVITY Layer   3
CONSTANT      1.00000E-5   PRIMARY STORAGE Layer                   3
CONSTANT      50.3551506   HYDRAULIC CONDUCTIVITY Layer            4
CONSTANT      .503551506   VERTICAL HYDRAULIC CONDUCTIVITY Layer   4
CONSTANT      1.00000E-5   PRIMARY STORAGE Layer                   4
CONSTANT      50.3551506   HYDRAULIC CONDUCTIVITY Layer            5
CONSTANT      .503551506   VERTICAL HYDRAULIC CONDUCTIVITY Layer   5
CONSTANT      1.00000E-5   PRIMARY STORAGE Layer                   5
CONSTANT      50.3551506   HYDRAULIC CONDUCTIVITY Layer            6
CONSTANT      .503551506   VERTICAL HYDRAULIC CONDUCTIVITY Layer   6
CONSTANT      1.00000E-5   PRIMARY STORAGE Layer                   6
CONSTANT      50.3551506   HYDRAULIC CONDUCTIVITY Layer            7
CONSTANT      .503551506   VERTICAL HYDRAULIC CONDUCTIVITY Layer   7
CONSTANT      1.00000E-5   PRIMARY STORAGE Layer                   7
CONSTANT      50.3551506   HYDRAULIC CONDUCTIVITY Layer            8
CONSTANT      .503551506   VERTICAL HYDRAULIC CONDUCTIVITY Layer   8
CONSTANT      1.00000E-5   PRIMARY STORAGE Layer                   8
CONSTANT      50.3551506   HYDRAULIC CONDUCTIVITY Layer            9
CONSTANT      .503551506   VERTICAL HYDRAULIC CONDUCTIVITY Layer   9
CONSTANT      1.00000E-5   PRIMARY STORAGE Layer                   9
CONSTANT      50.3551506   HYDRAULIC CONDUCTIVITY Layer           10
CONSTANT      .503551506   VERTICAL HYDRAULIC CONDUCTIVITY Layer  10
CONSTANT      1.00000E-5   PRIMARY STORAGE Layer                  10
        11     1.000(10e12.4)                   -1     HYDRAULIC CONDUCTIVITY Layer  11
  1048.89170  1048.89170  1048.89170  1048.89170  1048.89170  1048.89170  1048.89170  1048.89170  1048.89170  1048.89170
  1048.89170  .001000000  .001000000  .001000000  .001000000  .001000000  .001000000  .001000000  .001000000  .001000000
  .001000000  .001000000  .001000000  .001000000  .001000000  .001000000  .001000000  .001000000  .001000000  .001000000
  .001000000  .001000000  .001000000  .001000000  .001000000  .001000000  .001000000  .001000000  .001000000  .001000000
  .001000000  .001000000  .001000000  .001000000  .001000000  .001000000  .001000000  .001000000  .001000000  .001000000
  .001000000  .001000000  .001000000  .001000000  .001000000  .001000000  .001000000  .001000000  .001000000  .001000000
  .001000000  .001000000  .001000000  .001000000  .001000000  .001000000  .001000000  .001000000  .001000000  .001000000
  .001000000  .001000000  .001000000  .001000000  .001000000  .001000000  .001000000  .001000000  .001000000  .001000000
  .001000000  .001000000  .001000000  .001000000  .001000000  .001000000  .001000000  .001000000  .001000000  .001000000
  .001000000  .001000000  .001000000  .001000000  .001000000  .001000000  .001000000  .001000000  .001000000  .001000000
        11     1.000(10e12.4)                   -1     VERTICAL HYDRAULIC CONDUCTIVITY Layer  11
  104.889170  104.889170  104.889170  104.889170  104.889170  104.889170  104.889170  104.889170  104.889170  104.889170
  104.889170  .001000000  .001000000  .001000000  .001000000  .001000000  .001000000  .001000000  .001000000  .001000000
  .001000000  .001000000  .001000000  .001000000  .001000000  .001000000  .001000000  .001000000  .001000000  .001000000
  .001000000  .001000000  .001000000  .001000000  .001000000  .001000000  .001000000  .001000000  .001000000  .001000000
  .001000000  .001000000  .001000000  .001000000  .001000000  .001000000  .001000000  .001000000  .001000000  .001000000
  .001000000  .001000000  .001000000  .001000000  .001000000  .001000000  .001000000  .001000000  .001000000  .001000000
  .001000000  .001000000  .001000000  .001000000  .001000000  .001000000  .001000000  .001000000  .001000000  .001000000
  .001000000  .001000000  .001000000  .001000000  .001000000  .001000000  .001000000  .001000000  .001000000  .001000000
  .001000000  .001000000  .001000000  .001000000  .001000000  .001000000  .001000000  .001000000  .001000000  .001000000
  .001000000  .001000000  .001000000  .001000000  .001000000  .001000000  .001000000  .001000000  .001000000  .001000000
CONSTANT      1.00000E-5   PRIMARY STORAGE Layer                   11
        11     1.000(10e12.4)                   -1     HYDRAULIC CONDUCTIVITY Layer  12
  1048.89170  1048.89170  1048.89170  1048.89170  1048.89170  1048.89170  1048.89170  1048.89170  1048.89170  1048.89170
  1048.89170  1048.89170  1048.89170  1048.89170  1048.89170  1048.89170  1048.89170  1048.89170  1048.89170  .001000000
  .001000000  .001000000  .001000000  .001000000  .001000000  .001000000  .001000000  .001000000  .001000000  .001000000
  .001000000  .001000000  .001000000  .001000000  .001000000  .001000000  .001000000  .001000000  .001000000  .001000000
  .001000000  .001000000  .001000000  .001000000  .001000000  .001000000  .001000000  .001000000  .001000000  .001000000
  .001000000  .001000000  .001000000  .001000000  .001000000  .001000000  .001000000  .001000000  .001000000  .001000000
  .001000000  .001000000  .001000000  .001000000  .001000000  .001000000  .001000000  .001000000  .001000000  .001000000
  .001000000  .001000000  .001000000  .001000000  .001000000  .001000000  .001000000  .001000000  .001000000  .001000000
  .001000000  .001000000  .001000000  .001000000  .001000000  .001000000  .001000000  .001000000  .001000000  .001000000
  .001000000  .001000000  .001000000  .001000000  .001000000  .001000000  .001000000  .001000000  .001000000  .001000000
        11     1.000(10e12.4)                   -1     VERTICAL HYDRAULIC CONDUCTIVITY Layer  12
  104.889170  104.889170  104.889170  104.889170  104.889170  104.889170  104.889170  104.889170  104.889170  104.889170
  104.889170  104.889170  104.889170  104.889170  104.889170  104.889170  104.889170  104.889170  104.889170  .001000000
  .001000000  .001000000  .001000000  .001000000  .001000000  .001000000  .001000000  .001000000  .001000000  .001000000
  .001000000  .001000000  .001000000  .001000000  .001000000  .001000000  .001000000  .001000000  .001000000  .001000000
  .001000000  .001000000  .001000000  .001000000  .001000000  .001000000  .001000000  .001000000  .001000000  .001000000
  .001000000  .001000000  .001000000  .001000000  .001000000  .001000000  .001000000  .001000000  .001000000  .001000000
  .001000000  .001000000  .001000000  .001000000  .001000000  .001000000  .001000000  .001000000  .001000000  .001000000
  .001000000  .001000000  .001000000  .001000000  .001000000  .001000000  .001000000  .001000000  .001000000  .001000000
  .001000000  .001000000  .001000000  .001000000  .001000000  .001000000  .001000000  .001000000  .001000000  .001000000
  .001000000  .001000000  .001000000  .001000000  .001000000  .001000000  .001000000  .001000000  .001000000  .001000000
CONSTANT      1.00000E-5   PRIMARY STORAGE Layer                   12
        11     1.000(10e12.4)                   -1     HYDRAULIC CONDUCTIVITY Layer  13
  1048.89170  1048.89170  1048.89170  1048.89170  1048.89170  1048.89170  1048.89170  1048.89170  1048.89170  1048.89170
  1048.89170  1048.89170  1048.89170  1048.89170  1048.89170  1048.89170  1048.89170  1048.89170  1048.89170  1048.89170
  1048.89170  1048.89170  1048.89170  1048.89170  1048.89170  1048.89170  .001000000  .001000000  .001000000  .001000000
  .001000000  .001000000  .001000000  .001000000  .001000000  .001000000  .001000000  .001000000  .001000000  .001000000
  .001000000  .001000000  .001000000  .001000000  .001000000  .001000000  .001000000  .001000000  .001000000  .001000000
  .001000000  .001000000  .001000000  .001000000  .001000000  .001000000  .001000000  .001000000  .001000000  .001000000
  .001000000  .001000000  .001000000  .001000000  .001000000  .001000000  .001000000  .001000000  .001000000  .001000000
  .001000000  .001000000  .001000000  .001000000  .001000000  .001000000  .001000000  .001000000  .001000000  .001000000
  .001000000  .001000000  .001000000  .001000000  .001000000  .001000000  .001000000  .001000000  .001000000  .001000000
  .001000000  .001000000  .001000000  .001000000  .001000000  .001000000  .001000000  .001000000  .001000000  .001000000
        11     1.000(10e12.4)                   -1     VERTICAL HYDRAULIC CONDUCTIVITY Layer  13
  104.889170  104.889170  104.889170  104.889170  104.889170  104.889170  104.889170  104.889170  104.889170  104.889170
  104.889170  104.889170  104.889170  104.889170  104.889170  104.889170  104.889170  104.889170  104.889170  104.889170
  104.889170  104.889170  104.889170  104.889170  104.889170  104.889170  .001000000  .001000000  .001000000  .001000000
  .001000000  .001000000  .001000000  .001000000  .001000000  .001000000  .001000000  .001000000  .001000000  .001000000
  .001000000  .001000000  .001000000  .001000000  .001000000  .001000000  .001000000  .001000000  .001000000  .001000000
  .001000000  .001000000  .001000000  .001000000  .001000000  .001000000  .001000000  .001000000  .001000000  .001000000
  .001000000  .001000000  .001000000  .001000000  .001000000  .001000000  .001000000  .001000000  .001000000  .001000000
  .001000000  .001000000  .001000000  .001000000  .001000000  .001000000  .001000000  .001000000  .001000000  .001000000
  .001000000  .001000000  .001000000  .001000000  .001000000  .001000000  .001000000  .001000000  .001000000  .001000000
  .001000000  .001000000  .001000000  .001000000  .001000000  .001000000  .001000000  .001000000  .001000000  .001000000
CONSTANT      1.00000E-5   PRIMARY STORAGE Layer                   13
        11     1.000(10e12.4)                   -1     HYDRAULIC CONDUCTIVITY Layer  14
  1048.89170  1048.89170  1048.89170  1048.89170  1048.89170  1048.89170  1048.89170  1048.89170  1048.89170  1048.89170
  1048.89170  1048.89170  1048.89170  1048.89170  1048.89170  1048.89170  1048.89170  1048.89170  1048.89170  1048.89170
  1048.89170  1048.89170  1048.89170  1048.89170  1048.89170  1048.89170  1048.89170  1048.89170  1048.89170  1048.89170
  1048.89170  1048.89170  1048.89170  1048.89170  .001000000  .001000000  .001000000  .001000000  .001000000  .001000000
  .001000000  .001000000  .001000000  .001000000  .001000000  .001000000  .001000000  .001000000  .001000000  .001000000
  .001000000  .001000000  .001000000  .001000000  .001000000  .001000000  .001000000  .001000000  .001000000  .001000000
  .001000000  .001000000  .001000000  .001000000  .001000000  .001000000  .001000000  .001000000  .001000000  .001000000
  .001000000  .001000000  .001000000  .001000000  .001000000  .001000000  .001000000  .001000000  .001000000  .001000000
  .001000000  .001000000  .001000000  .001000000  .001000000  .001000000  .001000000  .001000000  .001000000  .001000000
  .001000000  .001000000  .001000000  .001000000  .001000000  .001000000  .001000000  .001000000  .001000000  .001000000
        11     1.000(10e12.4)                   -1     VERTICAL HYDRAULIC CONDUCTIVITY Layer  14
  104.889170  104.889170  104.889170  104.889170  104.889170  104.889170  104.889170  104.889170  104.889170  104.889170
  104.889170  104.889170  104.889170  104.889170  104.889170  104.889170  104.889170  104.889170  104.889170  104.889170
  104.889170  104.889170  104.889170  104.889170  104.889170  104.889170  104.889170  104.889170  104.889170  104.889170
  104.889170  104.889170  104.889170  104.889170  .001000000  .001000000  .001000000  .001000000  .001000000  .001000000
  .001000000  .001000000  .001000000  .001000000  .001000000  .001000000  .001000000  .001000000  .001000000  .001000000
  .001000000  .001000000  .001000000  .001000000  .001000000  .001000000  .001000000  .001000000  .001000000  .001000000
  .001000000  .001000000  .001000000  .001000000  .001000000  .001000000  .001000000  .001000000  .001000000  .001000000
  .001000000  .001000000  .001000000  .001000000  .001000000  .001000000  .001000000  .001000000  .001000000  .001000000
  .001000000  .001000000  .001000000  .001000000  .001000000  .001000000  .001000000  .001000000  .001000000  .001000000
  .001000000  .001000000  .001000000  .001000000  .001000000  .001000000  .001000000  .001000000  .001000000  .001000000
CONSTANT      1.00000E-5   PRIMARY STORAGE Layer                   14
        11     1.000(10e12.4)                   -1     HYDRAULIC CONDUCTIVITY Layer  15
  1048.89170  1048.89170  1048.89170  1048.89170  1048.89170  1048.89170  1048.89170  1048.89170  1048.89170  1048.89170
  1048.89170  1048.89170  1048.89170  1048.89170  1048.89170  1048.89170  1048.89170  1048.89170  1048.89170  1048.89170
  1048.89170  1048.89170  1048.89170  1048.89170  1048.89170  1048.89170  1048.89170  1048.89170  1048.89170  1048.89170
  1048.89170  1048.89170  1048.89170  1048.89170  1048.89170  1048.89170  1048.89170  1048.89170  1048.89170  1048.89170
  1048.89170  1048.89170  1048.89170  1048.89170  1048.89170  1048.89170  1048.89170  1048.89170  .001000000  .001000000
  .001000000  .001000000  .001000000  .001000000  .001000000  .001000000  .001000000  .001000000  .001000000  .001000000
  .001000000  .001000000  .001000000  .001000000  .001000000  .001000000  .001000000  .001000000  .001000000  .001000000
  .001000000  .001000000  .001000000  .001000000  .001000000  .001000000  .001000000  .001000000  .001000000  .001000000
  .001000000  .001000000  .001000000  .001000000  .001000000  .001000000  .001000000  .001000000  .001000000  .001000000
  .001000000  .001000000  .001000000  .001000000  .001000000  .001000000  .001000000  .001000000  .001000000  .001000000
        11     1.000(10e12.4)                   -1     VERTICAL HYDRAULIC CONDUCTIVITY Layer  15
  104.889170  104.889170  104.889170  104.889170  104.889170  104.889170  104.889170  104.889170  104.889170  104.889170
  104.889170  104.889170  104.889170  104.889170  104.889170  104.889170  104.889170  104.889170  104.889170  104.889170
  104.889170  104.889170  104.889170  104.889170  104.889170  104.889170  104.889170  104.889170  104.889170  104.889170
  104.889170  104.889170  104.889170  104.889170  104.889170  104.889170  104.889170  104.889170  104.889170  104.889170
  104.889170  104.889170  104.889170  104.889170  104.889170  104.889170  104.889170  104.889170  .001000000  .001000000
  .001000000  .001000000  .001000000  .001000000  .001000000  .001000000  .001000000  .001000000  .001000000  .001000000
  .001000000  .001000000  .001000000  .001000000  .001000000  .001000000  .001000000  .001000000  .001000000  .001000000
  .001000000  .001000000  .001000000  .001000000  .001000000  .001000000  .001000000  .001000000  .001000000  .001000000
  .001000000  .001000000  .001000000  .001000000  .001000000  .001000000  .001000000  .001000000  .001000000  .001000000
  .001000000  .001000000  .001000000  .001000000  .001000000  .001000000  .001000000  .001000000  .001000000  .001000000
CONSTANT      1.00000E-5   PRIMARY STORAGE Layer                   15
CONSTANT      1048.89170   HYDRAULIC CONDUCTIVITY Layer            16
CONSTANT      104.889170   VERTICAL HYDRAULIC CONDUCTIVITY Layer   16
CONSTANT      1.00000E-5   PRIMARY STORAGE Layer                   16
CONSTANT      1048.89170   HYDRAULIC CONDUCTIVITY Layer            17
CONSTANT      104.889170   VERTICAL HYDRAULIC CONDUCTIVITY Layer   17
CONSTANT      1.00000E-5   PRIMARY STORAGE Layer                   17
CONSTANT      1048.89170   HYDRAULIC CONDUCTIVITY Layer            18
CONSTANT      104.889170   VERTICAL HYDRAULIC CONDUCTIVITY Layer   18
CONSTANT      1.00000E-5   PRIMARY STORAGE Layer                   18
CONSTANT      1048.89170   HYDRAULIC CONDUCTIVITY Layer            19
CONSTANT      104.889170   VERTICAL HYDRAULIC CONDUCTIVITY Layer   19
CONSTANT      1.00000E-5   PRIMARY STORAGE Layer                   19
CONSTANT      1048.89170   HYDRAULIC CONDUCTIVITY Layer            20
CONSTANT      104.889170   VERTICAL HYDRAULIC CONDUCTIVITY Layer   20
CONSTANT      1.00000E-5   PRIMARY STORAGE Layer                   20
CONSTANT      1048.89170   HYDRAULIC CONDUCTIVITY Layer            21
CONSTANT      104.889170   VERTICAL HYDRAULIC CONDUCTIVITY Layer   21
CONSTANT      1.00000E-5   PRIMARY STORAGE Layer                   21
CONSTANT      1048.89170   HYDRAULIC CONDUCTIVITY Layer            22
CONSTANT      104.889170   VERTICAL HYDRAULIC CONDUCTIVITY Layer   22
CONSTANT      1.00000E-5   PRIMARY STORAGE Layer                   22
CONSTANT      1048.89170   HYDRAULIC CONDUCTIVITY Layer            23
CONSTANT      104.889170   VERTICAL HYDRAULIC CONDUCTIVITY Layer   23
CONSTANT      1.00000E-5   PRIMARY STORAGE Layer                   23
