Conversion from Groundwater Vistas
MT3D Model
        23         1       100         1         2         2
D   M   KG  
 T T T T T
 0 0 0 0 0 0 0 0 0 0 0 0 0 0 0 0 0 0 0 0 0 0 0
         0   100.000(10E12.4)                   -1     DELTA-X or C
         0   100.000(10E12.4)                   -1     DELTA-Y or R
         0     2.500(10E12.4)                   -1     TOP OF MODEL
         0     5.000(10E12.4)                   -1     DELZ Layer   1
         0     5.000(10E12.4)                   -1     DELZ Layer   2
         0     5.000(10E12.4)                   -1     DELZ Layer   3
         0     5.000(10E12.4)                   -1     DELZ Layer   4
         0     5.000(10E12.4)                   -1     DELZ Layer   5
         0     5.000(10E12.4)                   -1     DELZ Layer   6
         0     5.000(10E12.4)                   -1     DELZ Layer   7
         0     5.000(10E12.4)                   -1     DELZ Layer   8
         0     5.000(10E12.4)                   -1     DELZ Layer   9
         0     5.000(10E12.4)                   -1     DELZ Layer  10
         0     5.000(10E12.4)                   -1     DELZ Layer  11
         0     5.000(10E12.4)                   -1     DELZ Layer  12
         0     5.000(10E12.4)                   -1     DELZ Layer  13
         0     5.000(10E12.4)                   -1     DELZ Layer  14
         0     5.000(10E12.4)                   -1     DELZ Layer  15
         0     5.000(10E12.4)                   -1     DELZ Layer  16
         0     5.000(10E12.4)                   -1     DELZ Layer  17
         0     5.000(10E12.4)                   -1     DELZ Layer  18
         0     5.000(10E12.4)                   -1     DELZ Layer  19
         0     5.000(10E12.4)                   -1     DELZ Layer  20
         0     5.000(10E12.4)                   -1     DELZ Layer  21
         0     5.000(10E12.4)                   -1     DELZ Layer  22
         0     5.000(10E12.4)                   -1     DELZ Layer  23
         02.0000e-01(10E12.4)                   -1     POROSITY Layer   1
         02.0000e-01(10E12.4)                   -1     POROSITY Layer   2
         02.0000e-01(10E12.4)                   -1     POROSITY Layer   3
         02.0000e-01(10E12.4)                   -1     POROSITY Layer   4
         02.0000e-01(10E12.4)                   -1     POROSITY Layer   5
         02.0000e-01(10E12.4)                   -1     POROSITY Layer   6
         02.0000e-01(10E12.4)                   -1     POROSITY Layer   7
         02.0000e-01(10E12.4)                   -1     POROSITY Layer   8
         02.0000e-01(10E12.4)                   -1     POROSITY Layer   9
         02.0000e-01(10E12.4)                   -1     POROSITY Layer  10
         02.0000e-01(10E12.4)                   -1     POROSITY Layer  11
         02.0000e-01(10E12.4)                   -1     POROSITY Layer  12
         02.0000e-01(10E12.4)                   -1     POROSITY Layer  13
         02.0000e-01(10E12.4)                   -1     POROSITY Layer  14
         02.0000e-01(10E12.4)                   -1     POROSITY Layer  15
         02.0000e-01(10E12.4)                   -1     POROSITY Layer  16
         02.0000e-01(10E12.4)                   -1     POROSITY Layer  17
         02.0000e-01(10E12.4)                   -1     POROSITY Layer  18
         02.0000e-01(10E12.4)                   -1     POROSITY Layer  19
         02.0000e-01(10E12.4)                   -1     POROSITY Layer  20
         02.0000e-01(10E12.4)                   -1     POROSITY Layer  21
         02.0000e-01(10E12.4)                   -1     POROSITY Layer  22
         02.0000e-01(10E12.4)                   -1     POROSITY Layer  23
       100         1(25I3)                       0     ICBUND Layer   1
  1  1  1  1  1  1  1  1  1  1  1  1  1  1  1  1  1  1  1  1  1  1  1  1  1
  1  1  1  1  1  1  1  1  1  1  1  1  1  1  1  1  1  1  1  1  1  1  1  1  1
  1  1  1  1  1  1  1  1  1  1  1  1  1  1  1  1  1  1  1  1  1  0  0  0  0
  0  0  0  0  0  0  0  0  0  0  0  0  0  0  0  0  0  0  0  0  0  0  0  0  0
       100         1(25I3)                       0     ICBUND Layer   2
  1  1  1  1  1  1  1  1  1  1  1  1  1  1  1  1  1  1  1  1  1  1  1  1  1
  1  1  1  1  1  1  1  1  1  1  1  1  1  1  1  1  1  1  1  1  1  1  1  1  1
  1  1  1  1  1  1  1  1  1  1  1  1  1  1  1  1  1  1  1  1  1  1  0  0  0
  0  0  0  0  0  0  0  0  0  0  0  0  0  0  0  0  0  0  0  0  0  0  0  0  0
       100         1(25I3)                       0     ICBUND Layer   3
  1  1  1  1  1  1  1  1  1  1  1  1  1  1  1  1  1  1  1  1  1  1  1  1  1
  1  1  1  1  1  1  1  1  1  1  1  1  1  1  1  1  1  1  1  1  1  1  1  1  1
  1  1  1  1  1  1  1  1  1  1  1  1  1  1  1  1  1  1  1  1  1  1  1  1  0
  0  0  0  0  0  0  0  0  0  0  0  0  0  0  0  0  0  0  0  0  0  0  0  0  0
       100         1(25I3)                       0     ICBUND Layer   4
  1  1  1  1  1  1  1  1  1  1  1  1  1  1  1  1  1  1  1  1  1  1  1  1  1
  1  1  1  1  1  1  1  1  1  1  1  1  1  1  1  1  1  1  1  1  1  1  1  1  1
  1  1  1  1  1  1  1  1  1  1  1  1  1  1  1  1  1  1  1  1  1  1  1  1  1
  0  0  0  0  0  0  0  0  0  0  0  0  0  0  0  0  0  0  0  0  0  0  0  0  0
       100         1(25I3)                       0     ICBUND Layer   5
  1  1  1  1  1  1  1  1  1  1  1  1  1  1  1  1  1  1  1  1  1  1  1  1  1
  1  1  1  1  1  1  1  1  1  1  1  1  1  1  1  1  1  1  1  1  1  1  1  1  1
  1  1  1  1  1  1  1  1  1  1  1  1  1  1  1  1  1  1  1  1  1  1  1  1  1
  1  0  0  0  0  0  0  0  0  0  0  0  0  0  0  0  0  0  0  0  0  0  0  0  0
       100         1(25I3)                       0     ICBUND Layer   6
  1  1  1  1  1  1  1  1  1  1  1  1  1  1  1  1  1  1  1  1  1  1  1  1  1
  1  1  1  1  1  1  1  1  1  1  1  1  1  1  1  1  1  1  1  1  1  1  1  1  1
  1  1  1  1  1  1  1  1  1  1  1  1  1  1  1  1  1  1  1  1  1  1  1  1  1
  1  1  1  0  0  0  0  0  0  0  0  0  0  0  0  0  0  0  0  0  0  0  0  0  0
       100         1(25I3)                       0     ICBUND Layer   7
  1  1  1  1  1  1  1  1  1  1  1  1  1  1  1  1  1  1  1  1  1  1  1  1  1
  1  1  1  1  1  1  1  1  1  1  1  1  1  1  1  1  1  1  1  1  1  1  1  1  1
  1  1  1  1  1  1  1  1  1  1  1  1  1  1  1  1  1  1  1  1  1  1  1  1  1
  1  1  1  1  0  0  0  0  0  0  0  0  0  0  0  0  0  0  0  0  0  0  0  0  0
       100         1(25I3)                       0     ICBUND Layer   8
  1  1  1  1  1  1  1  1  1  1  1  1  1  1  1  1  1  1  1  1  1  1  1  1  1
  1  1  1  1  1  1  1  1  1  1  1  1  1  1  1  1  1  1  1  1  1  1  1  1  1
  1  1  1  1  1  1  1  1  1  1  1  1  1  1  1  1  1  1  1  1  1  1  1  1  1
  1  1  1  1  1  0  0  0  0  0  0  0  0  0  0  0  0  0  0  0  0  0  0  0  0
       100         1(25I3)                       0     ICBUND Layer   9
  1  1  1  1  1  1  1  1  1  1  1  1  1  1  1  1  1  1  1  1  1  1  1  1  1
  1  1  1  1  1  1  1  1  1  1  1  1  1  1  1  1  1  1  1  1  1  1  1  1  1
  1  1  1  1  1  1  1  1  1  1  1  1  1  1  1  1  1  1  1  1  1  1  1  1  1
  1  1  1  1  1  1  0  0  0  0  0  0  0  0  0  0  0  0  0  0  0  0  0  0  0
       100         1(25I3)                       0     ICBUND Layer  10
  1  1  1  1  1  1  1  1  1  1  1  1  1  1  1  1  1  1  1  1  1  1  1  1  1
  1  1  1  1  1  1  1  1  1  1  1  1  1  1  1  1  1  1  1  1  1  1  1  1  1
  1  1  1  1  1  1  1  1  1  1  1  1  1  1  1  1  1  1  1  1  1  1  1  1  1
  1  1  1  1  1  1  1  0  0  0  0  0  0  0  0  0  0  0  0  0  0  0  0  0  0
       100         1(25I3)                       0     ICBUND Layer  11
  1  1  1  1  1  1  1  1  1  1  1  1  1  1  1  1  1  1  1  1  1  1  1  1  1
  1  1  1  1  1  1  1  1  1  1  1  1  1  1  1  1  1  1  1  1  1  1  1  1  1
  1  1  1  1  1  1  1  1  1  1  1  1  1  1  1  1  1  1  1  1  1  1  1  1  1
  1  1  1  1  1  1  1  1  1  0  0  0  0  0  0  0  0  0  0  0  0  0  0  0  0
       100         1(25I3)                       0     ICBUND Layer  12
  1  1  1  1  1  1  1  1  1  1  1  1  1  1  1  1  1  1  1  1  1  1  1  1  1
  1  1  1  1  1  1  1  1  1  1  1  1  1  1  1  1  1  1  1  1  1  1  1  1  1
  1  1  1  1  1  1  1  1  1  1  1  1  1  1  1  1  1  1  1  1  1  1  1  1  1
  1  1  1  1  1  1  1  1  1  1  0  0  0  0  0  0  0  0  0  0  0  0  0  0  0
       100         1(25I3)                       0     ICBUND Layer  13
  1  1  1  1  1  1  1  1  1  1  1  1  1  1  1  1  1  1  1  1  1  1  1  1  1
  1  1  1  1  1  1  1  1  1  1  1  1  1  1  1  1  1  1  1  1  1  1  1  1  1
  1  1  1  1  1  1  1  1  1  1  1  1  1  1  1  1  1  1  1  1  1  1  1  1  1
  1  1  1  1  1  1  1  1  1  1  1  0  0  0  0  0  0  0  0  0  0  0  0  0  0
       100         1(25I3)                       0     ICBUND Layer  14
  1  1  1  1  1  1  1  1  1  1  1  1  1  1  1  1  1  1  1  1  1  1  1  1  1
  1  1  1  1  1  1  1  1  1  1  1  1  1  1  1  1  1  1  1  1  1  1  1  1  1
  1  1  1  1  1  1  1  1  1  1  1  1  1  1  1  1  1  1  1  1  1  1  1  1  1
  1  1  1  1  1  1  1  1  1  1  1  1  0  0  0  0  0  0  0  0  0  0  0  0  0
       100         1(25I3)                       0     ICBUND Layer  15
  1  1  1  1  1  1  1  1  1  1  1  1  1  1  1  1  1  1  1  1  1  1  1  1  1
  1  1  1  1  1  1  1  1  1  1  1  1  1  1  1  1  1  1  1  1  1  1  1  1  1
  1  1  1  1  1  1  1  1  1  1  1  1  1  1  1  1  1  1  1  1  1  1  1  1  1
  1  1  1  1  1  1  1  1  1  1  1  1  1  1  0  0  0  0  0  0  0  0  0  0  0
       100         1(25I3)                       0     ICBUND Layer  16
  0  0  0  0  0  0  0  0  0  0  0  0  0  0  0  0  0  0  0  0  1  1  1  1  1
  1  1  1  1  1  1  1  1  1  1  1  1  1  1  1  1  1  1  1  1  1  1  1  1  1
  1  1  1  1  1  1  1  1  1  1  1  1  1  1  1  1  1  1  1  1  1  1  1  1  1
  1  1  1  1  1  1  1  1  1  1  1  1  1  1  1  0  0  0  0  0  0  0  0  0  0
       100         1(25I3)                       0     ICBUND Layer  17
  0  0  0  0  0  0  0  0  0  0  0  0  0  0  0  0  0  0  0  0  0  0  0  0  0
  1  1  1  1  1  1  1  1  1  1  1  1  1  1  1  1  1  1  1  1  1  1  1  1  1
  1  1  1  1  1  1  1  1  1  1  1  1  1  1  1  1  1  1  1  1  1  1  1  1  1
  1  1  1  1  1  1  1  1  1  1  1  1  1  1  1  1  0  0  0  0  0  0  0  0  0
       100         1(25I3)                       0     ICBUND Layer  18
  0  0  0  0  0  0  0  0  0  0  0  0  0  0  0  0  0  0  0  0  0  0  0  0  0
  0  0  0  0  0  1  1  1  1  1  1  1  1  1  1  1  1  1  1  1  1  1  1  1  1
  1  1  1  1  1  1  1  1  1  1  1  1  1  1  1  1  1  1  1  1  1  1  1  1  1
  1  1  1  1  1  1  1  1  1  1  1  1  1  1  1  1  1  0  0  0  0  0  0  0  0
       100         1(25I3)                       0     ICBUND Layer  19
  0  0  0  0  0  0  0  0  0  0  0  0  0  0  0  0  0  0  0  0  0  0  0  0  0
  0  0  0  0  0  0  0  0  0  1  1  1  1  1  1  1  1  1  1  1  1  1  1  1  1
  1  1  1  1  1  1  1  1  1  1  1  1  1  1  1  1  1  1  1  1  1  1  1  1  1
  1  1  1  1  1  1  1  1  1  1  1  1  1  1  1  1  1  1  1  0  0  0  0  0  0
       100         1(25I3)                       0     ICBUND Layer  20
  0  0  0  0  0  0  0  0  0  0  0  0  0  0  0  0  0  0  0  0  0  0  0  0  0
  0  0  0  0  0  0  0  0  0  0  0  0  0  0  1  1  1  1  1  1  1  1  1  1  1
  1  1  1  1  1  1  1  1  1  1  1  1  1  1  1  1  1  1  1  1  1  1  1  1  1
  1  1  1  1  1  1  1  1  1  1  1  1  1  1  1  1  1  1  1  1  0  0  0  0  0
       100         1(25I3)                       0     ICBUND Layer  21
  0  0  0  0  0  0  0  0  0  0  0  0  0  0  0  0  0  0  0  0  0  0  0  0  0
  0  0  0  0  0  0  0  0  0  0  0  0  0  0  0  0  0  0  0  0  1  1  1  1  1
  1  1  1  1  1  1  1  1  1  1  1  1  1  1  1  1  1  1  1  1  1  1  1  1  1
  1  1  1  1  1  1  1  1  1  1  1  1  1  1  1  1  1  1  1  1  1  1  0  0  0
       100         1(25I3)                       0     ICBUND Layer  22
  0  0  0  0  0  0  0  0  0  0  0  0  0  0  0  0  0  0  0  0  0  0  0  0  0
  0  0  0  0  0  0  0  0  0  0  0  0  0  0  0  0  0  0  0  0  0  0  0  0  0
  0  1  1  1  1  1  1  1  1  1  1  1  1  1  1  1  1  1  1  1  1  1  1  1  1
  1  1  1  1  1  1  1  1  1  1  1  1  1  1  1  1  1  1  1  1  1  1  1  1  0
       100         1(25I3)                       0     ICBUND Layer  23
  0  0  0  0  0  0  0  0  0  0  0  0  0  0  0  0  0  0  0  0  0  0  0  0  0
  0  0  0  0  0  0  0  0  0  0  0  0  0  0  0  0  0  0  0  0  0  0  0  0  0
  0  0  0  0  0  0  0  0  1  1  1  1  1  1  1  1  1  1  1  1  1  1  1  1  1
  1  1  1  1  1  1  1  1  1  1  1  1  1  1  1  1  1  1  1  1  1  1  1  1  1
       100     1.000(10E12.4)                   -1     INITIAL CONCENTRATION Layer   1
  0.0000e+00  4.2039e-45  2.1580e-43  7.3512e-42  1.5193e-40  1.8588e-39  1.4160e-38  7.1895e-38  2.5706e-37  6.7085e-37
  1.3206e-36  2.0495e-36  2.6805e-36  3.0981e-36  3.3079e-36  3.6194e-36  5.6378e-36  1.5208e-34  1.3001e-33  1.2656e-32
  1.2717e-31  1.2795e-30  1.3000e-29  1.3501e-28  1.4433e-27  1.5859e-26  1.7741e-25  1.9956e-24  2.2378e-23  2.4949e-22
  2.7612e-21  3.0305e-20  3.2959e-19  3.5495e-18  3.7800e-17  3.9684e-16  4.0903e-15  4.1234e-14  4.0475e-13  3.8465e-12
  3.5129e-11  3.0536e-10  2.4946e-09  1.8815e-08  1.2778e-07  7.5432e-07  3.6914e-06  1.4241e-05  4.3445e-05  1.1116e-04
  2.4639e-04  4.8571e-04  8.7105e-04  1.4465e-03  2.2561e-03  3.3433e-03  4.7506e-03  6.5204e-03  8.6959e-03  1.1323e-02
  1.4455e-02  1.8158e-02  2.2535e-02  2.7816e-02  3.4775e-02  4.7753e-02  9.6982e-02  3.5813e-01  1.1530e+00  2.8221e+00
  5.7313e+00 -1.0000e+00 -1.0000e+00 -1.0000e+00 -1.0000e+00 -1.0000e+00 -1.0000e+00 -1.0000e+00 -1.0000e+00 -1.0000e+00
 -1.0000e+00 -1.0000e+00 -1.0000e+00 -1.0000e+00 -1.0000e+00 -1.0000e+00 -1.0000e+00 -1.0000e+00 -1.0000e+00 -1.0000e+00
 -1.0000e+00 -1.0000e+00 -1.0000e+00 -1.0000e+00 -1.0000e+00 -1.0000e+00 -1.0000e+00 -1.0000e+00 -1.0000e+00 -1.0000e+00
       100     1.000(10E12.4)                   -1     INITIAL CONCENTRATION Layer   2
  0.0000e+00  7.0065e-45  3.4052e-43  1.1687e-41  2.4473e-40  3.0478e-39  2.3492e-38  1.1877e-37  4.1795e-37  1.0734e-36
  2.0974e-36  3.2718e-36  4.3832e-36  5.2897e-36  5.9818e-36  6.9754e-36  1.2725e-35  2.1814e-34  1.8376e-33  1.7209e-32
  1.6613e-31  1.6100e-30  1.5803e-29  1.5910e-28  1.6564e-27  1.7840e-26  1.9695e-25  2.1968e-24  2.4482e-23  2.7167e-22
  2.9964e-21  3.2801e-20  3.5606e-19  3.8307e-18  4.0801e-17  4.2900e-16  4.4335e-15  4.4865e-14  4.4264e-13  4.2344e-12
  3.8992e-11  3.4241e-10  2.8321e-09  2.1678e-08  1.4975e-07  9.0025e-07  4.4757e-06  1.7367e-05  5.2724e-05  1.3391e-04
  2.9410e-04  5.7402e-04  1.0193e-03  1.6769e-03  2.5929e-03  3.8122e-03  5.3785e-03  7.3352e-03  9.7265e-03  1.2600e-02
  1.6008e-02  2.0019e-02  2.4739e-02  3.0410e-02  3.7860e-02  5.1771e-02  1.0588e-01  4.1125e-01  1.3209e+00  3.1522e+00
  6.5293e+00  2.0397e+01 -1.0000e+00 -1.0000e+00 -1.0000e+00 -1.0000e+00 -1.0000e+00 -1.0000e+00 -1.0000e+00 -1.0000e+00
 -1.0000e+00 -1.0000e+00 -1.0000e+00 -1.0000e+00 -1.0000e+00 -1.0000e+00 -1.0000e+00 -1.0000e+00 -1.0000e+00 -1.0000e+00
 -1.0000e+00 -1.0000e+00 -1.0000e+00 -1.0000e+00 -1.0000e+00 -1.0000e+00 -1.0000e+00 -1.0000e+00 -1.0000e+00 -1.0000e+00
       100     1.000(10E12.4)                   -1     INITIAL CONCENTRATION Layer   3
  0.0000e+00  1.1210e-44  4.9186e-43  1.6881e-41  3.5558e-40  4.4705e-39  3.4764e-38  1.7656e-37  6.2384e-37  1.6160e-36
  3.2021e-36  5.0900e-36  7.0603e-36  8.9775e-36  1.0831e-35  1.3458e-35  2.5095e-35  3.0771e-34  2.5359e-33  2.2831e-32
  2.1328e-31  2.0038e-30  1.9063e-29  1.8597e-28  1.8802e-27  1.9784e-26  2.1527e-25  2.3838e-24  2.6446e-23  2.9266e-22
  3.2235e-21  3.5275e-20  3.8306e-19  4.1264e-18  4.4079e-17  4.6584e-16  4.8466e-15  4.9460e-14  4.9308e-13  4.7769e-12
  4.4661e-11  3.9930e-10  3.3735e-09  2.6471e-08  1.8805e-07  1.1643e-06  5.9386e-06  2.3259e-05  7.0064e-05  1.7597e-04
  3.8104e-04  7.3229e-04  1.2806e-03  2.0762e-03  3.1670e-03  4.5992e-03  6.4173e-03  8.6654e-03  1.1389e-02  1.4636e-02
  1.8463e-02  2.2940e-02  2.8182e-02  3.4462e-02  4.2716e-02  5.8127e-02  1.2089e-01  5.1606e-01  1.6615e+00  3.8789e+00
  8.3202e+00  2.1774e+01  3.4356e+01  3.4929e+01 -1.0000e+00 -1.0000e+00 -1.0000e+00 -1.0000e+00 -1.0000e+00 -1.0000e+00
 -1.0000e+00 -1.0000e+00 -1.0000e+00 -1.0000e+00 -1.0000e+00 -1.0000e+00 -1.0000e+00 -1.0000e+00 -1.0000e+00 -1.0000e+00
 -1.0000e+00 -1.0000e+00 -1.0000e+00 -1.0000e+00 -1.0000e+00 -1.0000e+00 -1.0000e+00 -1.0000e+00 -1.0000e+00 -1.0000e+00
       100     1.000(10E12.4)                   -1     INITIAL CONCENTRATION Layer   4
  0.0000e+00  1.5414e-44  6.5301e-43  2.2164e-41  4.6872e-40  5.9469e-39  4.6873e-38  2.4197e-37  8.7312e-37  2.3195e-36
  4.7104e-36  7.6532e-36  1.1025e-35  1.4837e-35  1.9209e-35  2.5468e-35  4.6810e-35  4.3104e-34  3.4751e-33  2.9867e-32
  2.7117e-31  2.4828e-30  2.2968e-29  2.1719e-28  2.1255e-27  2.1743e-26  2.3248e-25  2.5565e-24  2.8260e-23  3.1228e-22
  3.4406e-21  3.7707e-20  4.1037e-19  4.4335e-18  4.7589e-17  5.0690e-16  5.3260e-15  5.5001e-14  5.5615e-13  5.4796e-12
  5.2253e-11  4.7797e-10  4.1464e-09  3.3537e-08  2.4644e-07  1.5810e-06  8.3194e-06  3.2950e-05  9.8309e-05  2.4380e-04
  5.1937e-04  9.8045e-04  1.6844e-03  2.6847e-03  4.0306e-03  5.7689e-03  7.9444e-03  1.0602e-02  1.3788e-02  1.7552e-02
  2.1954e-02  2.7070e-02  3.3027e-02  4.0157e-02  4.9468e-02  6.6913e-02  1.4234e-01  6.8769e-01  2.2208e+00  5.0675e+00
  1.0748e+01  2.4478e+01  3.4368e+01  3.4871e+01  3.4915e+01 -1.0000e+00 -1.0000e+00 -1.0000e+00 -1.0000e+00 -1.0000e+00
 -1.0000e+00 -1.0000e+00 -1.0000e+00 -1.0000e+00 -1.0000e+00 -1.0000e+00 -1.0000e+00 -1.0000e+00 -1.0000e+00 -1.0000e+00
 -1.0000e+00 -1.0000e+00 -1.0000e+00 -1.0000e+00 -1.0000e+00 -1.0000e+00 -1.0000e+00 -1.0000e+00 -1.0000e+00 -1.0000e+00
       100     1.000(10E12.4)                   -1     INITIAL CONCENTRATION Layer   5
  1.4013e-45  2.1019e-44  8.0154e-43  2.6545e-41  5.6336e-40  7.2296e-39  5.8091e-38  3.0804e-37  1.1517e-36  3.1774e-36
  6.6442e-36  1.0992e-35  1.6432e-35  2.3454e-35  3.2761e-35  4.6715e-35  8.4971e-35  6.0342e-34  4.7975e-33  3.8762e-32
  3.4279e-31  3.0734e-30  2.7757e-29  2.5483e-28  2.4082e-27  2.3802e-26  2.4868e-25  2.7145e-24  2.9908e-23  3.3028e-22
  3.6445e-21  4.0064e-20  4.3764e-19  4.7470e-18  5.1252e-17  5.5134e-16  5.8632e-15  6.1417e-14  6.3145e-13  6.3434e-12
  6.1862e-11  5.8042e-10  5.1830e-09  4.3320e-08  3.3017e-07  2.2014e-06  1.1994e-05  4.8084e-05  1.4189e-04  3.4729e-04
  7.2732e-04  1.3476e-03  2.2727e-03  3.5585e-03  5.2544e-03  7.4070e-03  1.0061e-02  1.3261e-02  1.7055e-02  2.1496e-02
  2.6646e-02  3.2591e-02  3.9478e-02  4.7699e-02  5.8307e-02  7.8306e-02  1.7053e-01  9.5113e-01  3.0693e+00  6.8140e+00
  1.4125e+01  2.8334e+01  3.4402e+01  3.4803e+01  3.4834e+01  3.4854e+01 -1.0000e+00 -1.0000e+00 -1.0000e+00 -1.0000e+00
 -1.0000e+00 -1.0000e+00 -1.0000e+00 -1.0000e+00 -1.0000e+00 -1.0000e+00 -1.0000e+00 -1.0000e+00 -1.0000e+00 -1.0000e+00
 -1.0000e+00 -1.0000e+00 -1.0000e+00 -1.0000e+00 -1.0000e+00 -1.0000e+00 -1.0000e+00 -1.0000e+00 -1.0000e+00 -1.0000e+00
       100     1.000(10E12.4)                   -1     INITIAL CONCENTRATION Layer   6
  1.4013e-45  2.8026e-44  9.3467e-43  2.9283e-41  6.2073e-40  8.0675e-39  6.6329e-38  3.6363e-37  1.4253e-36  4.1290e-36
  8.9042e-36  1.4869e-35  2.2997e-35  3.4840e-35  5.2777e-35  8.1964e-35  1.5125e-34  8.4743e-34  6.7727e-33  5.0084e-32
  4.3152e-31  3.8066e-30  3.3719e-29  3.0160e-28  2.7513e-27  2.6098e-26  2.6408e-25  2.8579e-24  3.1377e-23  3.4634e-22
  3.8306e-21  4.2297e-20  4.6440e-19  5.0606e-18  5.4951e-17  5.9783e-16  6.4447e-15  6.8576e-14  7.1791e-13  7.3637e-12
  7.3541e-11  7.0850e-10  6.5189e-09  5.6358e-08  4.4606e-07  3.0973e-06  1.7530e-05  7.1199e-05  2.0744e-04  5.0107e-04
  1.0311e-03  1.8744e-03  3.1031e-03  4.7727e-03  6.9313e-03  9.6241e-03  1.2895e-02  1.6788e-02  2.1355e-02  2.6650e-02
  3.2741e-02  3.9726e-02  4.7779e-02  5.7311e-02  6.9499e-02  9.2553e-02  2.0571e-01  1.3467e+00  4.3229e+00  9.3350e+00
  1.9248e+01  3.1230e+01  3.4400e+01  3.4705e+01  3.4720e+01  3.4716e+01  3.4756e+01  3.2861e+01 -1.0000e+00 -1.0000e+00
 -1.0000e+00 -1.0000e+00 -1.0000e+00 -1.0000e+00 -1.0000e+00 -1.0000e+00 -1.0000e+00 -1.0000e+00 -1.0000e+00 -1.0000e+00
 -1.0000e+00 -1.0000e+00 -1.0000e+00 -1.0000e+00 -1.0000e+00 -1.0000e+00 -1.0000e+00 -1.0000e+00 -1.0000e+00 -1.0000e+00
       100     1.000(10E12.4)                   -1     INITIAL CONCENTRATION Layer   7
  1.4013e-45  3.9236e-44  1.0818e-42  3.0485e-41  6.3280e-40  8.2893e-39  6.9744e-38  3.9504e-37  1.6332e-36  5.0275e-36
  1.1198e-35  1.8636e-35  2.9710e-35  4.7728e-35  7.8700e-35  1.3506e-34  2.6239e-34  1.1958e-33  9.9265e-33  6.4509e-32
  5.4101e-31  4.7172e-30  4.1197e-29  3.6090e-28  3.1861e-27  2.8845e-26  2.7894e-25  2.9873e-24  3.2652e-23  3.6007e-22
  3.9929e-21  4.4337e-20  4.9009e-19  5.3672e-18  5.8532e-17  6.4460e-16  7.0510e-15  7.6282e-14  8.1371e-13  8.5270e-12
  8.7271e-11  8.6360e-10  8.1889e-09  7.3257e-08  6.0262e-07  4.3664e-06  2.5774e-05  1.0615e-04  3.0470e-04  7.2633e-04
  1.4678e-03  2.6168e-03  4.2523e-03  6.4252e-03  9.1798e-03  1.2559e-02  1.6605e-02  2.1363e-02  2.6886e-02  3.3232e-02
  4.0478e-02  4.8735e-02  5.8220e-02  6.9313e-02  8.3404e-02  1.1002e-01  2.4803e-01  1.9434e+00  6.2057e+00  1.3202e+01
  2.5058e+01  3.2281e+01  3.4346e+01  3.4573e+01  3.4559e+01  3.4519e+01  3.4440e+01  3.2864e+01  3.3616e+01 -1.0000e+00
 -1.0000e+00 -1.0000e+00 -1.0000e+00 -1.0000e+00 -1.0000e+00 -1.0000e+00 -1.0000e+00 -1.0000e+00 -1.0000e+00 -1.0000e+00
 -1.0000e+00 -1.0000e+00 -1.0000e+00 -1.0000e+00 -1.0000e+00 -1.0000e+00 -1.0000e+00 -1.0000e+00 -1.0000e+00 -1.0000e+00
       100     1.000(10E12.4)                   -1     INITIAL CONCENTRATION Layer   8
  2.8026e-45  5.6052e-44  1.2710e-42  3.1190e-41  6.1101e-40  7.8745e-39  6.7411e-38  3.9133e-37  1.6967e-36  5.6152e-36
  1.3005e-35  2.1243e-35  3.4758e-35  5.8960e-35  1.0586e-34  2.0347e-34  4.3497e-34  1.6958e-33  1.5267e-32  8.2735e-32
  6.7477e-31  5.8432e-30  5.0577e-29  4.3682e-28  3.7551e-27  3.2382e-26  2.9362e-25  3.1046e-24  3.3724e-23  3.7108e-22
  4.1240e-21  4.6095e-20  5.1404e-19  5.6618e-18  6.1803e-17  6.8938e-16  7.6566e-15  8.4260e-14  9.1608e-13  9.8089e-12
  1.0292e-10  1.0462e-09  1.0223e-08  9.4653e-08  8.0994e-07  6.1372e-06  3.7977e-05  1.5879e-04  4.4778e-04  1.0534e-03
  2.0886e-03  3.6498e-03  5.8212e-03  8.6411e-03  1.2148e-02  1.6382e-02  2.1384e-02  2.7198e-02  3.3883e-02  4.1500e-02
  5.0138e-02  5.9928e-02  7.1106e-02  8.4096e-02  1.0051e-01  1.3133e-01  2.9795e-01  2.8786e+00  9.3254e+00  2.0601e+01
  2.9023e+01  3.2823e+01  3.4256e+01  3.4410e+01  3.4349e+01  3.4239e+01  3.4005e+01  3.2742e+01  3.3406e+01  3.3950e+01
 -1.0000e+00 -1.0000e+00 -1.0000e+00 -1.0000e+00 -1.0000e+00 -1.0000e+00 -1.0000e+00 -1.0000e+00 -1.0000e+00 -1.0000e+00
 -1.0000e+00 -1.0000e+00 -1.0000e+00 -1.0000e+00 -1.0000e+00 -1.0000e+00 -1.0000e+00 -1.0000e+00 -1.0000e+00 -1.0000e+00
       100     1.000(10E12.4)                   -1     INITIAL CONCENTRATION Layer   9
  4.2039e-45  7.9874e-44  1.5302e-42  3.1574e-41  5.6312e-40  7.0040e-39  5.9482e-38  3.4919e-37  1.5624e-36  5.5400e-36
  1.3649e-35  2.1610e-35  3.5983e-35  6.3672e-35  1.2356e-34  2.6871e-34  6.6474e-34  2.4241e-33  2.4570e-32  1.0517e-31
  8.3569e-31  7.2241e-30  6.2280e-29  5.3410e-28  4.5128e-27  3.7245e-26  3.0847e-25  3.2128e-24  3.4601e-23  3.7900e-22
  4.2154e-21  4.7450e-20  5.3545e-19  5.9439e-18  6.4535e-17  7.2945e-16  8.2297e-15  9.2156e-14  1.0212e-12  1.1171e-11
  1.2023e-10  1.2552e-09  1.2639e-08  1.2115e-07  1.0793e-06  8.5733e-06  5.5975e-05  2.3790e-04  6.5690e-04  1.5255e-03
  2.9637e-03  5.0728e-03  7.9396e-03  1.1577e-02  1.6018e-02  2.1300e-02  2.7461e-02  3.4545e-02  4.2622e-02  5.1753e-02
  6.2047e-02  7.3660e-02  8.6839e-02  1.0215e-01  1.2150e-01  1.5754e-01  3.5874e-01  4.5644e+00  1.6434e+01  2.5711e+01
  3.0400e+01  3.3079e+01  3.4139e+01  3.4225e+01  3.4101e+01  3.3887e+01  3.3455e+01  3.2515e+01  3.3149e+01  3.3534e+01
  3.3709e+01 -1.0000e+00 -1.0000e+00 -1.0000e+00 -1.0000e+00 -1.0000e+00 -1.0000e+00 -1.0000e+00 -1.0000e+00 -1.0000e+00
 -1.0000e+00 -1.0000e+00 -1.0000e+00 -1.0000e+00 -1.0000e+00 -1.0000e+00 -1.0000e+00 -1.0000e+00 -1.0000e+00 -1.0000e+00
       100     1.000(10E12.4)                   -1     INITIAL CONCENTRATION Layer  10
  7.0065e-45  1.1351e-43  1.9058e-42  3.2493e-41  4.9600e-40  5.6298e-39  4.5664e-38  2.6647e-37  1.2283e-36  4.6237e-36
  1.2500e-35  1.9397e-35  3.1884e-35  5.7018e-35  1.1659e-34  2.8722e-34  8.8025e-34  3.6210e-33  4.0410e-32  1.3127e-31
  1.0253e-30  8.8991e-30  7.6744e-29  6.5792e-28  5.5259e-27  4.4274e-26  3.2376e-25  3.3173e-24  3.5307e-23  3.8363e-22
  4.2577e-21  4.8239e-20  5.5317e-19  6.2229e-18  6.6462e-17  7.6165e-16  8.7328e-15  9.9536e-14  1.1242e-12  1.2555e-11
  1.3874e-10  1.4877e-09  1.5436e-08  1.5320e-07  1.4225e-06  1.1872e-05  8.2459e-05  3.5680e-04  9.6070e-04  2.2036e-03
  4.1881e-03  7.0151e-03  1.0772e-02  1.5426e-02  2.1009e-02  2.7556e-02  3.5103e-02  4.3695e-02  5.3419e-02  6.4334e-02
  7.6576e-02  9.0320e-02  1.0588e-01  1.2405e-01  1.4726e-01  1.9058e-01  4.5665e-01  9.2968e+00  1.9911e+01  2.6841e+01
  3.0865e+01  3.3139e+01  3.4013e+01  3.4039e+01  3.3839e+01  3.3480e+01  3.2707e+01  3.2169e+01  3.2855e+01  3.3198e+01
  3.3321e+01  3.3632e+01 -1.0000e+00 -1.0000e+00 -1.0000e+00 -1.0000e+00 -1.0000e+00 -1.0000e+00 -1.0000e+00 -1.0000e+00
 -1.0000e+00 -1.0000e+00 -1.0000e+00 -1.0000e+00 -1.0000e+00 -1.0000e+00 -1.0000e+00 -1.0000e+00 -1.0000e+00 -1.0000e+00
       100     1.000(10E12.4)                   -1     INITIAL CONCENTRATION Layer  11
  8.4078e-45  1.4433e-43  2.1538e-42  3.0929e-41  4.0000e-40  4.0638e-39  3.0907e-38  1.7572e-37  8.0262e-37  3.0276e-36
  9.1733e-36  1.0546e-35  1.3029e-35  1.7733e-35  3.0816e-35  1.0959e-34  8.7974e-34  9.1930e-33  8.9391e-32  1.8453e-31
  1.4554e-30  1.2874e-29  1.1181e-28  9.6747e-28  8.2015e-27  6.5303e-26  3.5480e-25  3.5345e-24  3.6492e-23  3.8643e-22
  4.2267e-21  4.8235e-20  5.7717e-19  6.8315e-18  6.8081e-17  8.0313e-16  9.5087e-15  1.1219e-13  1.3130e-12  1.5203e-11
  1.7662e-10  1.9857e-09  2.1693e-08  2.2843e-07  2.2735e-06  2.0595e-05  1.5987e-04  7.1249e-04  1.8337e-03  4.1347e-03
  7.5714e-03  1.2243e-02  1.8238e-02  2.5361e-02  3.3677e-02  4.3216e-02  5.4015e-02  6.6120e-02  7.9675e-02  9.4715e-02
  1.1147e-01  1.3019e-01  1.5144e-01  1.7673e-01  2.1017e-01  2.7309e-01  6.2344e-01  9.1318e+00  1.9728e+01  2.6662e+01
  3.0689e+01  3.2949e+01  3.3781e+01  3.3728e+01  3.3396e+01  3.2748e+01  3.0936e+01  3.0953e+01  3.2179e+01  3.2534e+01
  3.2633e+01  3.2454e+01  3.0855e+01  3.1851e+01 -1.0000e+00 -1.0000e+00 -1.0000e+00 -1.0000e+00 -1.0000e+00 -1.0000e+00
 -1.0000e+00 -1.0000e+00 -1.0000e+00 -1.0000e+00 -1.0000e+00 -1.0000e+00 -1.0000e+00 -1.0000e+00 -1.0000e+00 -1.0000e+00
       100     1.000(10E12.4)                   -1     INITIAL CONCENTRATION Layer  12
  1.1210e-44  1.6675e-43  2.2925e-42  2.9900e-41  3.5007e-40  3.3086e-39  2.4085e-38  1.3446e-37  6.1012e-37  2.3053e-36
  7.2468e-36  8.1154e-36  9.8701e-36  1.3222e-35  2.3989e-35  1.0042e-34  8.7832e-34  9.2272e-33  9.2043e-32  1.1843e-30
  1.2885e-29  1.5236e-28  1.6842e-27  1.8422e-26  1.9759e-25  1.9632e-24  6.5220e-24  6.4418e-23  5.8293e-22  4.4265e-21
  1.6051e-20  4.3492e-19  1.1220e-17  1.6090e-16  5.4314e-16  9.4243e-15  1.3896e-13  1.8968e-12  2.4534e-11  3.0489e-10
  3.9124e-09  4.6797e-08  5.4038e-07  6.0181e-06  6.3464e-05  6.0988e-04  5.0954e-03  2.2266e-02  6.4996e-02  1.3859e-01
  2.3458e-01  3.5117e-01  4.8680e-01  6.2981e-01  7.8180e-01  9.4191e-01  1.1093e+00  1.2834e+00  1.4663e+00  1.6548e+00
  1.8506e+00  2.0520e+00  2.2580e+00  2.4747e+00  2.7047e+00  2.9611e+00  3.3956e+00  8.5970e+00  1.5038e+01  1.9324e+01
  2.1900e+01  2.3429e+01  2.4121e+01  2.4309e+01  2.4344e+01  2.4190e+01  2.2551e+01  2.3362e+01  2.4620e+01  2.5046e+01
  2.5261e+01  2.5752e+01  2.9117e+01  3.0219e+01  2.8818e+01 -1.0000e+00 -1.0000e+00 -1.0000e+00 -1.0000e+00 -1.0000e+00
 -1.0000e+00 -1.0000e+00 -1.0000e+00 -1.0000e+00 -1.0000e+00 -1.0000e+00 -1.0000e+00 -1.0000e+00 -1.0000e+00 -1.0000e+00
       100     1.000(10E12.4)                   -1     INITIAL CONCENTRATION Layer  13
  1.2612e-44  1.8357e-43  2.3878e-42  2.8822e-41  3.1027e-40  2.7468e-39  1.9181e-38  1.0514e-37  4.7391e-37  1.8000e-36
  5.8798e-36  7.0796e-36  8.7033e-36  1.1635e-35  2.1644e-35  9.7422e-35  8.8293e-34  9.4759e-33  1.0363e-31  1.1872e-30
  1.2922e-29  1.5288e-28  1.6900e-27  1.8483e-26  1.9823e-25  1.9752e-24  2.7334e-23  3.0332e-22  3.3341e-21  3.6456e-20
  3.9498e-19  4.5691e-18  4.9021e-17  4.8538e-16  2.2257e-15  3.1309e-14  3.9500e-13  4.7885e-12  5.6514e-11  6.5403e-10
  7.9353e-09  9.0778e-08  1.0121e-06  1.0963e-05  1.1307e-04  1.0666e-03  8.7547e-03  3.7377e-02  1.1363e-01  2.3843e-01
  3.9901e-01  5.9220e-01  8.1570e-01  1.0497e+00  1.2974e+00  1.5573e+00  1.8282e+00  2.1092e+00  2.4038e+00  2.7070e+00
  3.0212e+00  3.3436e+00  3.6721e+00  4.0160e+00  4.3768e+00  4.7622e+00  5.2525e+00  8.2601e+00  1.1933e+01  1.4470e+01
  1.6106e+01  1.7188e+01  1.7837e+01  1.8237e+01  1.8575e+01  1.8827e+01  1.7939e+01  1.8944e+01  2.0104e+01  2.0672e+01
  2.1111e+01  2.1952e+01  2.6341e+01  2.7529e+01  2.7195e+01  2.5762e+01 -1.0000e+00 -1.0000e+00 -1.0000e+00 -1.0000e+00
 -1.0000e+00 -1.0000e+00 -1.0000e+00 -1.0000e+00 -1.0000e+00 -1.0000e+00 -1.0000e+00 -1.0000e+00 -1.0000e+00 -1.0000e+00
       100     1.000(10E12.4)                   -1     INITIAL CONCENTRATION Layer  14
  1.4013e-44  1.9618e-43  2.4481e-42  2.7940e-41  2.8239e-40  2.3725e-39  1.5998e-38  8.6276e-38  3.8657e-37  1.4748e-36
  4.8546e-36  6.3167e-36  7.9230e-36  1.0620e-35  2.0177e-35  9.5656e-35  8.8875e-34  9.6931e-33  1.0925e-31  1.1958e-30
  1.3099e-29  1.5357e-28  1.6960e-27  1.8642e-26  2.0396e-25  2.2069e-24  2.7373e-23  3.0369e-22  3.3375e-21  3.6483e-20