# MODFLOW2000 Well Package
PARAMETER  0  0
         7        54
         0         0               Stress Period 1
