# MODFLOW2000 Observation File
m2k_obs  -1
