Conversion from Groundwater Vistas
MT3D Model
        23         1       100         1         2         2
D   M   KG
 T T T T T
 0 0 0 0 0 0 0 0 0 0 0 0 0 0 0 0 0 0 0 0 0 0 0
         0   100.000(10E12.4)                   -1     DELTA-X or C
         0   100.000(10E12.4)                   -1     DELTA-Y or R
         0     2.500(10E12.4)                   -1     TOP OF MODEL
         0     5.000(10E12.4)                   -1     DELZ Layer   1
         0     5.000(10E12.4)                   -1     DELZ Layer   2
         0     5.000(10E12.4)                   -1     DELZ Layer   3
         0     5.000(10E12.4)                   -1     DELZ Layer   4
         0     5.000(10E12.4)                   -1     DELZ Layer   5
         0     5.000(10E12.4)                   -1     DELZ Layer   6
         0     5.000(10E12.4)                   -1     DELZ Layer   7
         0     5.000(10E12.4)                   -1     DELZ Layer   8
         0     5.000(10E12.4)                   -1     DELZ Layer   9
         0     5.000(10E12.4)                   -1     DELZ Layer  10
         0     5.000(10E12.4)                   -1     DELZ Layer  11
         0     5.000(10E12.4)                   -1     DELZ Layer  12
         0     5.000(10E12.4)                   -1     DELZ Layer  13
         0     5.000(10E12.4)                   -1     DELZ Layer  14
         0     5.000(10E12.4)                   -1     DELZ Layer  15
         0     5.000(10E12.4)                   -1     DELZ Layer  16
         0     5.000(10E12.4)                   -1     DELZ Layer  17
         0     5.000(10E12.4)                   -1     DELZ Layer  18
         0     5.000(10E12.4)                   -1     DELZ Layer  19
         0     5.000(10E12.4)                   -1     DELZ Layer  20
         0     5.000(10E12.4)                   -1     DELZ Layer  21
         0     5.000(10E12.4)                   -1     DELZ Layer  22
         0     5.000(10E12.4)                   -1     DELZ Layer  23
         0.200000000(10E12.4)                   -1     POROSITY Layer   1
         0.200000000(10E12.4)                   -1     POROSITY Layer   2
         0.200000000(10E12.4)                   -1     POROSITY Layer   3
         0.200000000(10E12.4)                   -1     POROSITY Layer   4
         0.200000000(10E12.4)                   -1     POROSITY Layer   5
         0.200000000(10E12.4)                   -1     POROSITY Layer   6
         0.200000000(10E12.4)                   -1     POROSITY Layer   7
         0.200000000(10E12.4)                   -1     POROSITY Layer   8
         0.200000000(10E12.4)                   -1     POROSITY Layer   9
         0.200000000(10E12.4)                   -1     POROSITY Layer  10
         0.200000000(10E12.4)                   -1     POROSITY Layer  11
         0.200000000(10E12.4)                   -1     POROSITY Layer  12
         0.200000000(10E12.4)                   -1     POROSITY Layer  13
         0.200000000(10E12.4)                   -1     POROSITY Layer  14
         0.200000000(10E12.4)                   -1     POROSITY Layer  15
         0.200000000(10E12.4)                   -1     POROSITY Layer  16
         0.200000000(10E12.4)                   -1     POROSITY Layer  17
         0.200000000(10E12.4)                   -1     POROSITY Layer  18
         0.200000000(10E12.4)                   -1     POROSITY Layer  19
         0.200000000(10E12.4)                   -1     POROSITY Layer  20
         0.200000000(10E12.4)                   -1     POROSITY Layer  21
         0.200000000(10E12.4)                   -1     POROSITY Layer  22
         0.200000000(10E12.4)                   -1     POROSITY Layer  23
       100         1(25I3)                      -1     ICBUND Layer   1
  1  1  1  1  1  1  1  1  1  1  1  1  1  1  1  1  1  1  1  1  1  1  1  1  1
  1  1  1  1  1  1  1  1  1  1  1  1  1  1  1  1  1  1  1  1  1  1  1  1  1
  1  1  1  1  1  1  1  1  1  1  1  1  1  1  1  1  1  1  1  1  1  0  0  0  0
  0  0  0  0  0  0  0  0  0  0  0  0  0  0  0  0  0  0  0  0  0  0  0  0  0
       100         1(25I3)                      -1     ICBUND Layer   2
  1  1  1  1  1  1  1  1  1  1  1  1  1  1  1  1  1  1  1  1  1  1  1  1  1
  1  1  1  1  1  1  1  1  1  1  1  1  1  1  1  1  1  1  1  1  1  1  1  1  1
  1  1  1  1  1  1  1  1  1  1  1  1  1  1  1  1  1  1  1  1  1  1  0  0  0
  0  0  0  0  0  0  0  0  0  0  0  0  0  0  0  0  0  0  0  0  0  0  0  0  0
       100         1(25I3)                      -1     ICBUND Layer   3
  1  1  1  1  1  1  1  1  1  1  1  1  1  1  1  1  1  1  1  1  1  1  1  1  1
  1  1  1  1  1  1  1  1  1  1  1  1  1  1  1  1  1  1  1  1  1  1  1  1  1
  1  1  1  1  1  1  1  1  1  1  1  1  1  1  1  1  1  1  1  1  1  1  1  1  0
  0  0  0  0  0  0  0  0  0  0  0  0  0  0  0  0  0  0  0  0  0  0  0  0  0
       100         1(25I3)                      -1     ICBUND Layer   4
  1  1  1  1  1  1  1  1  1  1  1  1  1  1  1  1  1  1  1  1  1  1  1  1  1
  1  1  1  1  1  1  1  1  1  1  1  1  1  1  1  1  1  1  1  1  1  1  1  1  1
  1  1  1  1  1  1  1  1  1  1  1  1  1  1  1  1  1  1  1  1  1  1  1  1  1
  0  0  0  0  0  0  0  0  0  0  0  0  0  0  0  0  0  0  0  0  0  0  0  0  0
       100         1(25I3)                      -1     ICBUND Layer   5
  1  1  1  1  1  1  1  1  1  1  1  1  1  1  1  1  1  1  1  1  1  1  1  1  1
  1  1  1  1  1  1  1  1  1  1  1  1  1  1  1  1  1  1  1  1  1  1  1  1  1
  1  1  1  1  1  1  1  1  1  1  1  1  1  1  1  1  1  1  1  1  1  1  1  1  1
  1  0  0  0  0  0  0  0  0  0  0  0  0  0  0  0  0  0  0  0  0  0  0  0  0
       100         1(25I3)                      -1     ICBUND Layer   6
  1  1  1  1  1  1  1  1  1  1  1  1  1  1  1  1  1  1  1  1  1  1  1  1  1
  1  1  1  1  1  1  1  1  1  1  1  1  1  1  1  1  1  1  1  1  1  1  1  1  1
  1  1  1  1  1  1  1  1  1  1  1  1  1  1  1  1  1  1  1  1  1  1  1  1  1
  1  1  1  0  0  0  0  0  0  0  0  0  0  0  0  0  0  0  0  0  0  0  0  0  0
       100         1(25I3)                      -1     ICBUND Layer   7
  1  1  1  1  1  1  1  1  1  1  1  1  1  1  1  1  1  1  1  1  1  1  1  1  1
  1  1  1  1  1  1  1  1  1  1  1  1  1  1  1  1  1  1  1  1  1  1  1  1  1
  1  1  1  1  1  1  1  1  1  1  1  1  1  1  1  1  1  1  1  1  1  1  1  1  1
  1  1  1  1  0  0  0  0  0  0  0  0  0  0  0  0  0  0  0  0  0  0  0  0  0
       100         1(25I3)                      -1     ICBUND Layer   8
  1  1  1  1  1  1  1  1  1  1  1  1  1  1  1  1  1  1  1  1  1  1  1  1  1
  1  1  1  1  1  1  1  1  1  1  1  1  1  1  1  1  1  1  1  1  1  1  1  1  1
  1  1  1  1  1  1  1  1  1  1  1  1  1  1  1  1  1  1  1  1  1  1  1  1  1
  1  1  1  1  1  0  0  0  0  0  0  0  0  0  0  0  0  0  0  0  0  0  0  0  0
       100         1(25I3)                      -1     ICBUND Layer   9
  1  1  1  1  1  1  1  1  1  1  1  1  1  1  1  1  1  1  1  1  1  1  1  1  1
  1  1  1  1  1  1  1  1  1  1  1  1  1  1  1  1  1  1  1  1  1  1  1  1  1
  1  1  1  1  1  1  1  1  1  1  1  1  1  1  1  1  1  1  1  1  1  1  1  1  1
  1  1  1  1  1  1  0  0  0  0  0  0  0  0  0  0  0  0  0  0  0  0  0  0  0
       100         1(25I3)                      -1     ICBUND Layer  10
  1  1  1  1  1  1  1  1  1  1  1  1  1  1  1  1  1  1  1  1  1  1  1  1  1
  1  1  1  1  1  1  1  1  1  1  1  1  1  1  1  1  1  1  1  1  1  1  1  1  1
  1  1  1  1  1  1  1  1  1  1  1  1  1  1  1  1  1  1  1  1  1  1  1  1  1
  1  1  1  1  1  1  1  0  0  0  0  0  0  0  0  0  0  0  0  0  0  0  0  0  0
       100         1(25I3)                      -1     ICBUND Layer  11
  1  1  1  1  1  1  1  1  1  1  1  1  1  1  1  1  1  1  1  1  1  1  1  1  1
  1  1  1  1  1  1  1  1  1  1  1  1  1  1  1  1  1  1  1  1  1  1  1  1  1
  1  1  1  1  1  1  1  1  1  1  1  1  1  1  1  1  1  1  1  1  1  1  1  1  1
  1  1  1  1  1  1  1  1  1  0  0  0  0  0  0  0  0  0  0  0  0  0  0  0  0
       100         1(25I3)                      -1     ICBUND Layer  12
  1  1  1  1  1  1  1  1  1  1  1  1  1  1  1  1  1  1  1  1  1  1  1  1  1
  1  1  1  1  1  1  1  1  1  1  1  1  1  1  1  1  1  1  1  1  1  1  1  1  1
  1  1  1  1  1  1  1  1  1  1  1  1  1  1  1  1  1  1  1  1  1  1  1  1  1
  1  1  1  1  1  1  1  1  1  1  0  0  0  0  0  0  0  0  0  0  0  0  0  0  0
       100         1(25I3)                      -1     ICBUND Layer  13
  1  1  1  1  1  1  1  1  1  1  1  1  1  1  1  1  1  1  1  1  1  1  1  1  1
  1  1  1  1  1  1  1  1  1  1  1  1  1  1  1  1  1  1  1  1  1  1  1  1  1
  1  1  1  1  1  1  1  1  1  1  1  1  1  1  1  1  1  1  1  1  1  1  1  1  1
  1  1  1  1  1  1  1  1  1  1  1  0  0  0  0  0  0  0  0  0  0  0  0  0  0
       100         1(25I3)                      -1     ICBUND Layer  14
  1  1  1  1  1  1  1  1  1  1  1  1  1  1  1  1  1  1  1  1  1  1  1  1  1
  1  1  1  1  1  1  1  1  1  1  1  1  1  1  1  1  1  1  1  1  1  1  1  1  1
  1  1  1  1  1  1  1  1  1  1  1  1  1  1  1  1  1  1  1  1  1  1  1  1  1
  1  1  1  1  1  1  1  1  1  1  1  1  0  0  0  0  0  0  0  0  0  0  0  0  0
       100         1(25I3)                      -1     ICBUND Layer  15
  1  1  1  1  1  1  1  1  1  1  1  1  1  1  1  1  1  1  1  1  1  1  1  1  1
  1  1  1  1  1  1  1  1  1  1  1  1  1  1  1  1  1  1  1  1  1  1  1  1  1
  1  1  1  1  1  1  1  1  1  1  1  1  1  1  1  1  1  1  1  1  1  1  1  1  1
  1  1  1  1  1  1  1  1  1  1  1  1  1  1  0  0  0  0  0  0  0  0  0  0  0
       100         1(25I3)                      -1     ICBUND Layer  16
  0  0  0  0  0  0  0  0  0  0  0  0  0  0  0  0  0  0  0  0  1  1  1  1  1
  1  1  1  1  1  1  1  1  1  1  1  1  1  1  1  1  1  1  1  1  1  1  1  1  1
  1  1  1  1  1  1  1  1  1  1  1  1  1  1  1  1  1  1  1  1  1  1  1  1  1
  1  1  1  1  1  1  1  1  1  1  1  1  1  1  1  0  0  0  0  0  0  0  0  0  0
       100         1(25I3)                      -1     ICBUND Layer  17
  0  0  0  0  0  0  0  0  0  0  0  0  0  0  0  0  0  0  0  0  0  0  0  0  0
  1  1  1  1  1  1  1  1  1  1  1  1  1  1  1  1  1  1  1  1  1  1  1  1  1
  1  1  1  1  1  1  1  1  1  1  1  1  1  1  1  1  1  1  1  1  1  1  1  1  1
  1  1  1  1  1  1  1  1  1  1  1  1  1  1  1  1  0  0  0  0  0  0  0  0  0
       100         1(25I3)                      -1     ICBUND Layer  18
  0  0  0  0  0  0  0  0  0  0  0  0  0  0  0  0  0  0  0  0  0  0  0  0  0
  0  0  0  0  0  1  1  1  1  1  1  1  1  1  1  1  1  1  1  1  1  1  1  1  1
  1  1  1  1  1  1  1  1  1  1  1  1  1  1  1  1  1  1  1  1  1  1  1  1  1
  1  1  1  1  1  1  1  1  1  1  1  1  1  1  1  1  1  0  0  0  0  0  0  0  0
       100         1(25I3)                      -1     ICBUND Layer  19
  0  0  0  0  0  0  0  0  0  0  0  0  0  0  0  0  0  0  0  0  0  0  0  0  0
  0  0  0  0  0  0  0  0  0  1  1  1  1  1  1  1  1  1  1  1  1  1  1  1  1
  1  1  1  1  1  1  1  1  1  1  1  1  1  1  1  1  1  1  1  1  1  1  1  1  1
  1  1  1  1  1  1  1  1  1  1  1  1  1  1  1  1  1  1  1  0  0  0  0  0  0
       100         1(25I3)                      -1     ICBUND Layer  20
  0  0  0  0  0  0  0  0  0  0  0  0  0  0  0  0  0  0  0  0  0  0  0  0  0
  0  0  0  0  0  0  0  0  0  0  0  0  0  0  1  1  1  1  1  1  1  1  1  1  1
  1  1  1  1  1  1  1  1  1  1  1  1  1  1  1  1  1  1  1  1  1  1  1  1  1
  1  1  1  1  1  1  1  1  1  1  1  1  1  1  1  1  1  1  1  1  0  0  0  0  0
       100         1(25I3)                      -1     ICBUND Layer  21
  0  0  0  0  0  0  0  0  0  0  0  0  0  0  0  0  0  0  0  0  0  0  0  0  0
  0  0  0  0  0  0  0  0  0  0  0  0  0  0  0  0  0  0  0  0  1  1  1  1  1
  1  1  1  1  1  1  1  1  1  1  1  1  1  1  1  1  1  1  1  1  1  1  1  1  1
  1  1  1  1  1  1  1  1  1  1  1  1  1  1  1  1  1  1  1  1  1  1  0  0  0
       100         1(25I3)                      -1     ICBUND Layer  22
  0  0  0  0  0  0  0  0  0  0  0  0  0  0  0  0  0  0  0  0  0  0  0  0  0
  0  0  0  0  0  0  0  0  0  0  0  0  0  0  0  0  0  0  0  0  0  0  0  0  0
  0  1  1  1  1  1  1  1  1  1  1  1  1  1  1  1  1  1  1  1  1  1  1  1  1
  1  1  1  1  1  1  1  1  1  1  1  1  1  1  1  1  1  1  1  1  1  1  1  1  0
       100         1(25I3)                      -1     ICBUND Layer  23
  0  0  0  0  0  0  0  0  0  0  0  0  0  0  0  0  0  0  0  0  0  0  0  0  0
  0  0  0  0  0  0  0  0  0  0  0  0  0  0  0  0  0  0  0  0  0  0  0  0  0
  0  0  0  0  0  0  0  0  1  1  1  1  1  1  1  1  1  1  1  1  1  1  1  1  1
  1  1  1  1  1  1  1  1  1  1  1  1  1  1  1  1  1  1  1  1  1  1  1  1  1
       100     1.000(10E12.4)                   -1     INITIAL CONCENTRATION Layer   1
  0.0000e+00  0.0000e+00  0.0000e+00  0.0000e+00  2.8026e-45  9.8091e-45  2.8026e-44  5.8855e-44  1.0650e-43  1.6255e-43
  2.2000e-43  2.7325e-43  3.2090e-43  3.6574e-43  4.0778e-43  4.4701e-43  4.8065e-43  5.0727e-43  5.1988e-43  5.1568e-43
  4.9466e-43  4.6103e-43  4.2039e-43  3.8536e-43  3.8396e-43  3.7275e-43  5.3118e-41  6.3886e-40  7.3388e-39  8.4317e-38
  9.6006e-37  1.0840e-35  1.2158e-34  1.3565e-33  1.5071e-32  1.6687e-31  1.8420e-30  2.0272e-29  2.2234e-28  2.4283e-27
  2.6379e-26  2.8450e-25  3.0378e-24  3.1983e-23  3.3001e-22  3.3078e-21  3.1790e-20  2.8752e-19  2.3815e-18  1.7348e-17
  1.0412e-16  4.6429e-16  1.5202e-15  3.8921e-15  8.4796e-15  1.9163e-14  7.4986e-14  6.0376e-13  6.2774e-12  6.7957e-11
  7.3783e-10  7.9894e-09  8.6099e-08  9.2101e-07  9.7385e-06  1.0108e-04  1.0179e-03  9.7403e-03  8.5086e-02  6.1752e-01
  2.1830e+00 -1.0000e+00 -1.0000e+00 -1.0000e+00 -1.0000e+00 -1.0000e+00 -1.0000e+00 -1.0000e+00 -1.0000e+00 -1.0000e+00
 -1.0000e+00 -1.0000e+00 -1.0000e+00 -1.0000e+00 -1.0000e+00 -1.0000e+00 -1.0000e+00 -1.0000e+00 -1.0000e+00 -1.0000e+00
 -1.0000e+00 -1.0000e+00 -1.0000e+00 -1.0000e+00 -1.0000e+00 -1.0000e+00 -1.0000e+00 -1.0000e+00 -1.0000e+00 -1.0000e+00
       100     1.000(10E12.4)                   -1     INITIAL CONCENTRATION Layer   2
  0.0000e+00  0.0000e+00  0.0000e+00  1.4013e-45  4.2039e-45  1.5414e-44  3.9236e-44  8.1275e-44  1.3873e-43  2.0459e-43
  2.6905e-43  3.3071e-43  3.8816e-43  4.4281e-43  4.9886e-43  5.5491e-43  6.0956e-43  6.6001e-43  6.9785e-43  7.1887e-43
  7.2027e-43  7.0766e-43  6.8804e-43  6.8103e-43  7.6371e-43  1.6283e-42  7.0976e-41  8.3768e-40  9.3193e-39  1.0364e-37
  1.1487e-36  1.2695e-35  1.3997e-34  1.5401e-33  1.6916e-32  1.8553e-31  2.0320e-30  2.2218e-29  2.4240e-28  2.6367e-27
  2.8560e-26  3.0753e-25  3.2836e-24  3.4635e-23  3.5893e-22  3.6246e-21  3.5234e-20  3.2380e-19  2.7394e-18  2.0497e-17
  1.2678e-16  5.7362e-16  1.8736e-15  4.7418e-15  1.0133e-14  2.2019e-14  8.0817e-14  6.3039e-13  6.5165e-12  7.0466e-11
  7.6476e-10  8.2803e-09  8.9260e-08  9.5563e-07  1.0121e-05  1.0535e-04  1.0664e-03  1.0299e-02  9.1633e-02  7.0626e-01
  2.6056e+00  1.2408e+01 -1.0000e+00 -1.0000e+00 -1.0000e+00 -1.0000e+00 -1.0000e+00 -1.0000e+00 -1.0000e+00 -1.0000e+00
 -1.0000e+00 -1.0000e+00 -1.0000e+00 -1.0000e+00 -1.0000e+00 -1.0000e+00 -1.0000e+00 -1.0000e+00 -1.0000e+00 -1.0000e+00
 -1.0000e+00 -1.0000e+00 -1.0000e+00 -1.0000e+00 -1.0000e+00 -1.0000e+00 -1.0000e+00 -1.0000e+00 -1.0000e+00 -1.0000e+00
       100     1.000(10E12.4)                   -1     INITIAL CONCENTRATION Layer   3
  0.0000e+00  0.0000e+00  0.0000e+00  1.4013e-45  7.0065e-45  2.1019e-44  5.1848e-44  1.0229e-43  1.6956e-43  2.4383e-43
  3.1809e-43  3.8816e-43  4.5542e-43  5.2409e-43  5.9695e-43  6.7683e-43  7.6091e-43  8.4779e-43  9.2906e-43  9.9632e-43
  1.0440e-42  1.0832e-42  1.1224e-42  1.1981e-42  1.4882e-42  3.5733e-42  9.0622e-41  1.0438e-39  1.1274e-38  1.2208e-37
  1.3250e-36  1.4405e-35  1.5678e-34  1.7073e-33  1.8594e-32  2.0249e-31  2.2050e-30  2.4000e-29  2.6095e-28  2.8323e-27
  3.0652e-26  3.3032e-25  3.5370e-24  3.7518e-23  3.9243e-22  4.0193e-21  3.9871e-20  3.7660e-19  3.3005e-18  2.5796e-17
  1.6770e-16  7.7653e-16  2.5266e-15  6.2825e-15  1.3045e-14  2.6776e-14  8.9028e-14  6.5885e-13  6.7502e-12  7.2926e-11
  7.9165e-10  8.5782e-09  9.2613e-08  9.9415e-07  1.0575e-05  1.1086e-04  1.1355e-03  1.1188e-02  1.0391e-01  9.1181e-01
  3.5710e+00  1.3307e+01  3.3942e+01  3.4836e+01 -1.0000e+00 -1.0000e+00 -1.0000e+00 -1.0000e+00 -1.0000e+00 -1.0000e+00
 -1.0000e+00 -1.0000e+00 -1.0000e+00 -1.0000e+00 -1.0000e+00 -1.0000e+00 -1.0000e+00 -1.0000e+00 -1.0000e+00 -1.0000e+00
 -1.0000e+00 -1.0000e+00 -1.0000e+00 -1.0000e+00 -1.0000e+00 -1.0000e+00 -1.0000e+00 -1.0000e+00 -1.0000e+00 -1.0000e+00
       100     1.000(10E12.4)                   -1     INITIAL CONCENTRATION Layer   4
  0.0000e+00  0.0000e+00  0.0000e+00  1.4013e-45  8.4078e-45  2.6625e-44  6.3058e-44  1.2191e-43  1.9758e-43  2.8166e-43
  3.6434e-43  4.4141e-43  5.1988e-43  6.0396e-43  6.9645e-43  8.0435e-43  9.2766e-43  1.0664e-42  1.2135e-42  1.3565e-42
  1.4840e-42  1.6227e-42  1.7909e-42  2.0543e-42  2.7437e-42  6.4726e-42  1.1189e-40  1.2544e-39  1.3161e-38  1.3926e-37
  1.4857e-36  1.5946e-35  1.7184e-34  1.8567e-33  2.0092e-32  2.1764e-31  2.3600e-30  2.5606e-29  2.7784e-28  3.0130e-27
  3.2627e-26  3.5245e-25  3.7922e-24  4.0552e-23  4.2952e-22  4.4811e-21  4.5618e-20  4.4606e-19  4.0835e-18  3.3656e-17
  2.3306e-16  1.1099e-15  3.5941e-15  8.7558e-15  1.7604e-14  3.3940e-14  1.0016e-13  6.8957e-13  6.9782e-12  7.5328e-11
  8.1834e-10  8.8809e-09  9.6128e-08  1.0362e-06  1.1097e-05  1.1762e-04  1.2253e-03  1.2446e-02  1.2306e-01  1.2660e+00
  4.8557e+00  1.5661e+01  3.3785e+01  3.4702e+01  3.4837e+01 -1.0000e+00 -1.0000e+00 -1.0000e+00 -1.0000e+00 -1.0000e+00
 -1.0000e+00 -1.0000e+00 -1.0000e+00 -1.0000e+00 -1.0000e+00 -1.0000e+00 -1.0000e+00 -1.0000e+00 -1.0000e+00 -1.0000e+00
 -1.0000e+00 -1.0000e+00 -1.0000e+00 -1.0000e+00 -1.0000e+00 -1.0000e+00 -1.0000e+00 -1.0000e+00 -1.0000e+00 -1.0000e+00
       100     1.000(10E12.4)                   -1     INITIAL CONCENTRATION Layer   5
  0.0000e+00  0.0000e+00  0.0000e+00  2.8026e-45  9.8091e-45  3.0829e-44  7.2868e-44  1.3733e-43  2.2141e-43  3.1389e-43
  4.0498e-43  4.8905e-43  5.7593e-43  6.7402e-43  7.8893e-43  9.2626e-43  1.0958e-42  1.3004e-42  1.5372e-42  1.7923e-42
  2.0459e-42  2.3514e-42  2.7564e-42  3.3827e-42  4.7672e-42  1.0686e-41  1.3447e-40  1.4652e-39  1.4931e-38  1.5476e-37
  1.6276e-36  1.7291e-35  1.8494e-34  1.9867e-33  2.1398e-32  2.3086e-31  2.4956e-30  2.7021e-29  2.9287e-28  3.1762e-27
  3.4446e-26  3.7336e-25  4.0410e-24  4.3619e-23  4.6858e-22  4.9901e-21  5.2286e-20  5.3128e-19  5.1022e-18  4.4545e-17
  3.3228e-16  1.6326e-15  5.2558e-15  1.2527e-14  2.4373e-14  4.4204e-14  1.1490e-13  7.2299e-13  7.1997e-12  7.7654e-11
  8.4459e-10  9.1846e-09  9.9744e-08  1.0809e-06  1.1675e-05  1.2544e-04  1.3359e-03  1.4096e-02  1.4983e-01  1.8141e+00
  6.5902e+00  1.8822e+01  3.3644e+01  3.4537e+01  3.4681e+01  3.4809e+01 -1.0000e+00 -1.0000e+00 -1.0000e+00 -1.0000e+00
 -1.0000e+00 -1.0000e+00 -1.0000e+00 -1.0000e+00 -1.0000e+00 -1.0000e+00 -1.0000e+00 -1.0000e+00 -1.0000e+00 -1.0000e+00
 -1.0000e+00 -1.0000e+00 -1.0000e+00 -1.0000e+00 -1.0000e+00 -1.0000e+00 -1.0000e+00 -1.0000e+00 -1.0000e+00 -1.0000e+00
       100     1.000(10E12.4)                   -1     INITIAL CONCENTRATION Layer   6
  0.0000e+00  0.0000e+00  0.0000e+00  2.8026e-45  1.1210e-44  3.3631e-44  7.8473e-44  1.4994e-43  2.4102e-43  3.4052e-43
  4.3721e-43  5.2409e-43  6.1797e-43  7.2727e-43  8.6040e-43  1.0300e-42  1.2458e-42  1.5246e-42  1.8763e-42  2.2841e-42
  2.7073e-42  3.2594e-42  4.0427e-42  5.2857e-42  7.8164e-42  1.6668e-41  1.5779e-40  1.6697e-39  1.6521e-38  1.6811e-37
  1.7473e-36  1.8415e-35  1.9586e-34  2.0955e-33  2.2499e-32  2.4202e-31  2.6106e-30  2.8227e-29  3.0581e-28  3.3187e-27
  3.6064e-26  3.9237e-25  4.2732e-24  4.6570e-23  5.0747e-22  5.5178e-21  5.9548e-20  6.2982e-19  6.3587e-18  5.8880e-17
  4.7917e-16  2.4357e-15  7.7846e-15  1.8129e-14  3.4136e-14  5.8476e-14  1.3407e-13  7.5953e-13  7.4129e-12  7.9880e-11
  8.7002e-10  9.4834e-09  1.0337e-07  1.1270e-06  1.2292e-05  1.3412e-04  1.4652e-03  1.6131e-02  1.8461e-01  2.6354e+00
  8.9851e+00  2.2960e+01  3.3521e+01  3.4298e+01  3.4457e+01  3.4628e+01  3.4860e+01  2.9976e+01 -1.0000e+00 -1.0000e+00
 -1.0000e+00 -1.0000e+00 -1.0000e+00 -1.0000e+00 -1.0000e+00 -1.0000e+00 -1.0000e+00 -1.0000e+00 -1.0000e+00 -1.0000e+00
 -1.0000e+00 -1.0000e+00 -1.0000e+00 -1.0000e+00 -1.0000e+00 -1.0000e+00 -1.0000e+00 -1.0000e+00 -1.0000e+00 -1.0000e+00
       100     1.000(10E12.4)                   -1     INITIAL CONCENTRATION Layer   7
  0.0000e+00  0.0000e+00  0.0000e+00  2.8026e-45  1.1210e-44  3.5032e-44  8.1275e-44  1.5554e-43  2.5083e-43  3.5873e-43
  4.5822e-43  5.4230e-43  6.3899e-43  7.5530e-43  9.0244e-43  1.0944e-42  1.3509e-42  1.7040e-42  2.1846e-42  2.7858e-42
  3.4136e-42  4.2810e-42  5.5856e-42  7.7464e-42  1.2032e-41  2.4891e-41  1.8094e-40  1.8574e-39  1.7850e-38  1.7876e-37
  1.8410e-36  1.9289e-35  2.0436e-34  2.1812e-33  2.3382e-32  2.5099e-31  2.7033e-30  2.9207e-29  3.1643e-28  3.4371e-27
  3.7430e-26  4.0874e-25  4.4776e-24  4.9232e-23  5.4360e-22  6.0268e-21  6.6922e-20  7.3701e-19  7.8349e-18  7.6793e-17
  6.9357e-16  3.6590e-15  1.1589e-14  2.6326e-14  4.7956e-14  7.7908e-14  1.5858e-13  7.9944e-13  7.6154e-12  8.1974e-11
  8.9418e-10  9.7705e-09  1.0690e-07  1.1725e-06  1.2915e-05  1.4325e-04  1.6085e-03  1.8513e-02  2.2788e-01  3.8797e+00
  1.2520e+01  2.8127e+01  3.3358e+01  3.3964e+01  3.4114e+01  3.4341e+01  3.4565e+01  2.9975e+01  3.1052e+01 -1.0000e+00
 -1.0000e+00 -1.0000e+00 -1.0000e+00 -1.0000e+00 -1.0000e+00 -1.0000e+00 -1.0000e+00 -1.0000e+00 -1.0000e+00 -1.0000e+00
 -1.0000e+00 -1.0000e+00 -1.0000e+00 -1.0000e+00 -1.0000e+00 -1.0000e+00 -1.0000e+00 -1.0000e+00 -1.0000e+00 -1.0000e+00
       100     1.000(10E12.4)                   -1     INITIAL CONCENTRATION Layer   8
  0.0000e+00  0.0000e+00  0.0000e+00  2.8026e-45  1.1210e-44  3.3631e-44  7.9874e-44  1.5134e-43  2.4803e-43  3.6294e-43
  4.6243e-43  5.3950e-43  6.3479e-43  7.5110e-43  9.0103e-43  1.1028e-42  1.3845e-42  1.7937e-42  2.3990e-42  3.2328e-42
  4.0680e-42  5.2689e-42  7.1718e-42  1.0483e-41  1.7149e-41  3.5451e-41  2.0233e-40  2.0117e-39  1.8820e-38  1.8616e-37
  1.9049e-36  1.9886e-35  2.1022e-34  2.2417e-33  2.4033e-32  2.5764e-31  2.7724e-30  2.9943e-29  3.2448e-28  3.5280e-27
  3.8496e-26  4.2172e-25  4.6428e-24  5.1429e-23  5.7418e-22  6.4730e-21  7.3752e-20  8.4526e-19  9.4869e-18  9.7676e-17
  1.0036e-15  5.5160e-15  1.7272e-14  3.8192e-14  6.7240e-14  1.0390e-13  1.8939e-13  8.4278e-13  7.8040e-12  8.3901e-11
  9.1658e-10  1.0038e-08  1.1020e-07  1.2152e-06  1.3507e-05  1.5221e-04  1.7576e-03  2.1188e-02  2.8189e-01  5.8855e+00
  1.8498e+01  2.9908e+01  3.3083e+01  3.3528e+01  3.3619e+01  3.3844e+01  3.4134e+01  2.9909e+01  3.1072e+01  3.2687e+01
 -1.0000e+00 -1.0000e+00 -1.0000e+00 -1.0000e+00 -1.0000e+00 -1.0000e+00 -1.0000e+00 -1.0000e+00 -1.0000e+00 -1.0000e+00
 -1.0000e+00 -1.0000e+00 -1.0000e+00 -1.0000e+00 -1.0000e+00 -1.0000e+00 -1.0000e+00 -1.0000e+00 -1.0000e+00 -1.0000e+00
       100     1.000(10E12.4)                   -1     INITIAL CONCENTRATION Layer   9
  0.0000e+00  0.0000e+00  0.0000e+00  2.8026e-45  9.8091e-45  3.0829e-44  7.2868e-44  1.3733e-43  2.2841e-43  3.4612e-43
  4.4701e-43  5.1568e-43  6.0256e-43  7.1046e-43  8.4919e-43  1.0426e-42  1.3186e-42  1.7432e-42  2.4383e-42  3.5467e-42
  4.5430e-42  6.0144e-42  8.4358e-42  1.2833e-41  2.2031e-41  4.6859e-41  2.1873e-40  2.1059e-39  1.9313e-38  1.8969e-37
  1.9353e-36  2.0177e-35  2.1317e-34  2.2743e-33  2.4439e-32  2.6184e-31  2.8164e-30  3.0417e-29  3.2975e-28  3.5885e-27
  3.9217e-26  4.3067e-25  4.7586e-24  5.2997e-23  5.9649e-22  6.8092e-21  7.9225e-20  9.4309e-19  1.1251e-17  1.1933e-16
  1.4488e-15  8.3327e-15  2.5723e-14  5.5216e-14  9.3808e-14  1.3808e-13  2.2739e-13  8.8910e-13  7.9743e-12  8.5622e-11
  9.3672e-10  1.0278e-08  1.1314e-07  1.2528e-06  1.4022e-05  1.6011e-04  1.8978e-03  2.4104e-02  3.5891e-01  9.6684e+00
  2.4666e+01  3.0456e+01  3.2719e+01  3.2999e+01  3.2955e+01  3.3034e+01  3.3216e+01  2.9681e+01  3.0698e+01  3.1844e+01
  3.2297e+01 -1.0000e+00 -1.0000e+00 -1.0000e+00 -1.0000e+00 -1.0000e+00 -1.0000e+00 -1.0000e+00 -1.0000e+00 -1.0000e+00
 -1.0000e+00 -1.0000e+00 -1.0000e+00 -1.0000e+00 -1.0000e+00 -1.0000e+00 -1.0000e+00 -1.0000e+00 -1.0000e+00 -1.0000e+00
       100     1.000(10E12.4)                   -1     INITIAL CONCENTRATION Layer  10
  0.0000e+00  0.0000e+00  0.0000e+00  2.8026e-45  8.4078e-45  2.6625e-44  6.0256e-44  1.1631e-43  1.9618e-43  3.0408e-43
  4.1058e-43  4.7504e-43  5.4511e-43  6.3199e-43  7.4829e-43  9.0664e-43  1.1421e-42  1.5162e-42  2.2070e-42  3.6616e-42
  4.7182e-42  6.2946e-42  8.9263e-42  1.3813e-41  2.4343e-41  5.3552e-41  2.2086e-40  2.1018e-39  1.9201e-38  1.8874e-37
  1.9283e-36  2.0136e-35  2.1298e-34  2.2759e-33  2.4586e-32  2.6345e-31  2.8340e-30  3.0615e-29  3.3204e-28  3.6159e-27
  3.9558e-26  4.3504e-25  4.8168e-24  5.3805e-23  6.0825e-22  6.9922e-21  8.2427e-20  1.0136e-18  1.3085e-17  1.3642e-16
  2.0838e-15  1.2608e-14  3.8238e-14  7.9434e-14  1.2995e-13  1.8223e-13  2.7316e-13  9.3729e-13  8.1208e-12  8.7100e-11
  9.5414e-10  1.0485e-08  1.1562e-07  1.2832e-06  1.4415e-05  1.6584e-04  2.0027e-03  2.6953e-02  4.8619e-01  1.5963e+01
  2.5770e+01  3.0481e+01  3.2314e+01  3.2415e+01  3.2144e+01  3.1816e+01  3.1477e+01  2.8983e+01  3.0122e+01  3.1154e+01
  3.1493e+01  3.2033e+01 -1.0000e+00 -1.0000e+00 -1.0000e+00 -1.0000e+00 -1.0000e+00 -1.0000e+00 -1.0000e+00 -1.0000e+00
 -1.0000e+00 -1.0000e+00 -1.0000e+00 -1.0000e+00 -1.0000e+00 -1.0000e+00 -1.0000e+00 -1.0000e+00 -1.0000e+00 -1.0000e+00
       100     1.000(10E12.4)                   -1     INITIAL CONCENTRATION Layer  11
  0.0000e+00  0.0000e+00  0.0000e+00  1.4013e-45  7.0065e-45  1.8217e-44  4.3440e-44  8.4078e-44  1.4574e-43  2.3542e-43
  3.6294e-43  3.6574e-43  3.8396e-43  4.1478e-43  4.5402e-43  5.0727e-43  5.7733e-43  6.7963e-43  9.8792e-43  3.4220e-42
  4.3230e-42  5.6276e-42  7.7155e-42  1.1353e-41  1.8487e-41  3.6808e-41  1.5983e-40  1.8279e-39  1.7591e-38  1.7710e-37
  1.8343e-36  1.9352e-35  2.0597e-34  2.2096e-33  2.4332e-32  2.6125e-31  2.8141e-30  3.0433e-29  3.3038e-28  3.6009e-27
  3.9431e-26  4.3397e-25  4.8081e-24  5.3741e-23  6.0788e-22  6.9925e-21  8.2555e-20  1.0477e-18  1.7080e-17  1.3877e-16
  3.8803e-15  2.5580e-14  7.5076e-14  1.4753e-13  2.2661e-13  2.9362e-13  3.7965e-13  1.0324e-12  8.3511e-12  8.9477e-11
  9.8258e-10  1.0819e-08  1.1947e-07  1.3267e-06  1.4894e-05  1.7089e-04  2.0527e-03  2.7395e-02  4.9584e-01  1.5036e+01
  2.5165e+01  2.9856e+01  3.1529e+01  3.1315e+01  3.0547e+01  2.9069e+01  1.9727e+01  1.7390e+01  2.8420e+01  2.9790e+01
  3.0129e+01  2.9634e+01  1.0855e+01  1.2668e+01 -1.0000e+00 -1.0000e+00 -1.0000e+00 -1.0000e+00 -1.0000e+00 -1.0000e+00
 -1.0000e+00 -1.0000e+00 -1.0000e+00 -1.0000e+00 -1.0000e+00 -1.0000e+00 -1.0000e+00 -1.0000e+00 -1.0000e+00 -1.0000e+00
       100     1.000(10E12.4)                   -1     INITIAL CONCENTRATION Layer  12
  0.0000e+00  0.0000e+00  0.0000e+00  1.4013e-45  5.6052e-45  1.4013e-44  3.3631e-44  6.7262e-44  1.2051e-43  1.9898e-43
  3.1809e-43  3.2230e-43  3.4052e-43  3.6574e-43  3.9797e-43  4.3861e-43  4.9045e-43  5.6332e-43  6.7402e-43  6.5581e-43
  7.0766e-43  7.9454e-43  9.1505e-43  1.1351e-42  1.8175e-42  6.5399e-42  1.2081e-40  1.3636e-39  1.3386e-38  1.3652e-37
  1.4239e-36  1.5288e-35  1.6270e-34  1.7260e-33  2.2885e-32  2.4863e-31  2.6905e-30  2.9207e-29  3.1821e-28  3.4822e-27
  3.8605e-26  4.2823e-25  4.7854e-24  5.4089e-23  6.2190e-22  7.3736e-21  9.8523e-20  5.3741e-18  2.1530e-15  8.9502e-15
  1.1679e-12  3.5751e-12  6.5301e-12  8.9873e-12  1.0240e-11  9.9241e-12  8.2872e-12  7.1466e-12  2.0797e-11  2.0463e-10
  2.2413e-09  2.4382e-08  2.6319e-07  2.8106e-06  2.9542e-05  3.0374e-04  3.0336e-03  2.9357e-02  3.4112e-01  8.9100e+00
  1.4924e+01  1.7787e+01  1.8919e+01  1.8978e+01  1.8748e+01  1.8136e+01  1.2974e+01  1.1953e+01  1.8801e+01  2.0080e+01
  2.0822e+01  2.1134e+01  1.0845e+01  1.2668e+01  1.4699e+01 -1.0000e+00 -1.0000e+00 -1.0000e+00 -1.0000e+00 -1.0000e+00
 -1.0000e+00 -1.0000e+00 -1.0000e+00 -1.0000e+00 -1.0000e+00 -1.0000e+00 -1.0000e+00 -1.0000e+00 -1.0000e+00 -1.0000e+00
       100     1.000(10E12.4)                   -1     INITIAL CONCENTRATION Layer  13
  0.0000e+00  0.0000e+00  0.0000e+00  1.4013e-45  4.2039e-45  1.1210e-44  2.6625e-44  5.4651e-44  9.9492e-44  1.6956e-43
  2.8166e-43  3.0128e-43  3.2230e-43  3.4752e-43  3.7695e-43  4.1338e-43  4.5963e-43  5.2268e-43  6.1657e-43  6.2358e-43
  6.5721e-43  7.1606e-43  7.9874e-43  9.5428e-43  1.5092e-42  5.3249e-42  5.3608e-41  5.7573e-40  6.2090e-39  6.6935e-38
  7.1827e-37  8.2284e-36  8.7484e-35  8.8287e-34  1.8722e-32  2.0712e-31  2.2531e-30  2.4523e-29  2.6748e-28  2.9285e-27
  3.2908e-26  3.6601e-25  4.0908e-24  4.6205e-23  5.3073e-22  6.3061e-21  8.5757e-20  4.6325e-18  3.7025e-15  3.6738e-14
  1.4383e-12  4.1267e-12  7.5145e-12  1.0322e-11  1.1738e-11  1.1353e-11  9.4860e-12  8.5022e-12  2.7811e-11  2.8124e-10
  3.0818e-09  3.3435e-08  3.5906e-07  3.7998e-06  3.9299e-05  3.9209e-04  3.6832e-03  3.0580e-02  2.3605e-01  4.8312e+00
  8.1082e+00  9.7553e+00  1.0525e+01  1.0764e+01  1.0891e+01  1.0855e+01  8.4717e+00  8.3256e+00  1.2392e+01  1.3606e+01
  1.4614e+01  1.5471e+01  1.0836e+01  1.2668e+01  1.4700e+01  1.6915e+01 -1.0000e+00 -1.0000e+00 -1.0000e+00 -1.0000e+00
 -1.0000e+00 -1.0000e+00 -1.0000e+00 -1.0000e+00 -1.0000e+00 -1.0000e+00 -1.0000e+00 -1.0000e+00 -1.0000e+00 -1.0000e+00
       100     1.000(10E12.4)                   -1     INITIAL CONCENTRATION Layer  14
  0.0000e+00  0.0000e+00  0.0000e+00  1.4013e-45  2.8026e-45  9.8091e-45  2.2421e-44  4.6243e-44  8.5479e-44  1.4854e-43
  2.5223e-43  2.8446e-43  3.0969e-43  3.3491e-43  3.6294e-43  3.9797e-43  4.4001e-43  4.9746e-43  5.8294e-43  6.0956e-43
  6.4179e-43  6.8944e-43  7.5810e-43  8.9263e-43  1.4153e-42  5.5253e-42  5.2655e-41  5.6438e-40  6.1025e-39  6.5880e-38