# MODFLOW2000 Head Observation File
# Groundwater Vistas also writes drawdown targets here
  7  0  0
  1.0  1.0
p1_head 12  1  74  1  44950.000000  0.131800  0.154700  1.000000  1.000000  1  12
p2_head 17  1  74  1  44950.000000  0.131800  0.154700  1.000000  1.000000  1  17
p3_head 4  1  55  1  44950.000000  -0.077300  -0.290700  1.000000  1.000000  1  4
p4_head 22  1  93  1  44950.000000  0.131800  -0.236300  1.000000  1.000000  1  22
p5_head 19  1  48  1  44950.000000  0.131800  -0.086100  1.000000  1.000000  1  19
p6_head 13  1  61  1  44950.000000  0.131800  -0.227000  1.000000  1.000000  1  13
p7_head 5  1  27  1  44950.000000  0.131800  -0.099600  1.000000  1.000000  1  5
