@[MODPATH Version 3.00 (V3, Release 1, 9-94)] batch
@RESPONSE
modpath.dat
@RESPONSE
1
@RESPONSE
1  1
@RESPONSE
  1.0
@RESPONSE
N
@RESPONSE
1
@RESPONSE
SWI_IIIA.cbf
@RESPONSE
2
@RESPONSE
N
@RESPONSE
1
@RESPONSE
SWI_IIIA.ptr
@RESPONSE
2
@RESPONSE
1
@RESPONSE
N
@RESPONSE
N
@RESPONSE
N
@RESPONSE
Y
