@ [ MODPATH Version 3.00 (V3, Release 2, 5-99) [PC] (TREF=   0.730000E+04 ) ]
      1  5.41630E+03  5.04970E+03  9.99000E-01 -9.25050E+01  0.00000E+00   55   50   20       1
      1  5.41647E+03  5.04970E+03  0.00000E+00 -9.25000E+01  3.56502E-01   55   50   19       1
      1  5.50000E+03  5.04950E+03  7.00871E-01 -8.89956E+01  2.41530E+02   56   50   19       1
      1  5.53800E+03  5.04937E+03  0.00000E+00 -8.75000E+01  3.79022E+02   56   50   18       1
      1  5.60000E+03  5.04856E+03  7.52988E-01 -8.37351E+01  7.28623E+02   57   50   18       1
      1  5.62473E+03  5.04804E+03  0.00000E+00 -8.25000E+01  9.05201E+02   57   50   17       1
      1  5.70000E+03  5.04149E+03  9.64851E-01 -7.76757E+01  1.79837E+03   58   50   17       1
      1  5.71329E+03  5.03902E+03  0.00000E+00 -7.75000E+01  2.01977E+03   58   50   16       1
      1  5.80000E+03  5.01418E+03  2.35561E-01 -7.63222E+01  3.84788E+03   59   50   16       1
      1  5.81307E+03  5.01258E+03  1.00000E+00 -7.75000E+01  4.33679E+03   59   50   17       1
      1  5.82138E+03  5.00000E+03  8.04419E-01 -7.84779E+01  4.72784E+03   59   51   17       1
      1  5.82300E+03  4.97860E+03  0.00000E+00 -7.75000E+01  5.22228E+03   59   51   16       1
      1  5.81668E+03  4.90000E+03  4.56331E-01 -7.52183E+01  6.89090E+03   59   52   16       1
      1  5.80000E+03  4.86116E+03  5.42754E-01 -7.47862E+01  7.27558E+03   58   52   16       1
      1  5.79901E+03  4.85714E+03  5.48495E-01 -7.47575E+01  7.30000E+03   58   52   16       1
      2  5.40156E+03  5.16637E+03  9.99000E-01 -9.25050E+01  0.00000E+00   55   49   20       1
      2  5.40185E+03  5.16642E+03  0.00000E+00 -9.25000E+01  6.39059E-01   55   49   19       1
      2  5.48682E+03  5.20000E+03  3.95288E-01 -9.05236E+01  2.51432E+02   55   48   19       1
      2  5.50000E+03  5.20854E+03  4.17368E-01 -9.04132E+01  3.06481E+02   56   48   19       1
      2  5.60000E+03  5.27323E+03  7.10959E-01 -8.89452E+01  8.03622E+02   57   48   19       1
      2  5.63531E+03  5.30000E+03  8.69489E-01 -8.81526E+01  1.02308E+03   57   47   19       1
      2  5.68294E+03  5.36146E+03  0.00000E+00 -8.75000E+01  1.46523E+03   57   47   18       1
      2  5.68884E+03  5.40000E+03  5.49469E-02 -8.72253E+01  1.65008E+03   57   46   18       1
      2  5.68580E+03  5.50000E+03  3.15201E-02 -8.73424E+01  2.08996E+03   57   45   18       1
      2  5.68142E+03  5.52384E+03  1.00000E+00 -8.75000E+01  2.18922E+03   57   45   19       1
      2  5.69245E+03  5.60000E+03  8.77301E-01 -8.81135E+01  2.57343E+03   57   44   19       1
      2  5.69009E+03  5.70000E+03  6.13696E-01 -8.94315E+01  3.05670E+03   57   43   19       1
      2  5.67353E+03  5.80000E+03  2.58405E-01 -9.12080E+01  3.53177E+03   57   42   19       1
      2  5.65623E+03  5.85837E+03  1.00000E+00 -9.25000E+01  3.80985E+03   57   42   20       1
      2  5.66462E+03  5.90000E+03  7.73615E-01 -9.36319E+01  4.05697E+03   57   41   20       1
      2  5.66847E+03  6.00000E+03  1.65421E-01 -9.66729E+01  4.65011E+03   57   40   20       1
      2  5.66574E+03  6.02413E+03  1.00000E+00 -9.75000E+01  4.79372E+03   57   40   21       1
      2  5.70000E+03  6.06223E+03  6.80711E-01 -9.90964E+01  5.09425E+03   58   40   21       1
      2  5.74691E+03  6.10000E+03  4.67822E-01 -1.00161E+02  5.46609E+03   58   39   21       1
      2  5.80000E+03  6.14750E+03  1.97580E-01 -1.01512E+02  5.92952E+03   59   39   21       1
      2  5.81360E+03  6.15726E+03  1.00000E+00 -1.02500E+02  6.04685E+03   59   39   22       1
      2  5.90000E+03  6.17326E+03  9.15619E-02 -1.07042E+02  6.43763E+03   60   39   22       1
      2  5.93187E+03  6.17869E+03  1.00000E+00 -1.07500E+02  6.62377E+03   60   39   23       1
      2  6.00000E+03  6.17671E+03  9.08655E-01 -1.07957E+02  6.82501E+03   61   39   23       1
      2  6.10000E+03  6.17173E+03  8.38742E-01 -1.08306E+02  7.09707E+03   62   39   23       1
      2  6.17896E+03  6.16681E+03  8.04054E-01 -1.08480E+02  7.30000E+03   62   39   23       1
      3  5.35827E+03  5.27571E+03  9.99000E-01 -9.25050E+01  0.00000E+00   54   48   20       1
      3  5.39824E+03  5.30000E+03  9.99048E-01 -9.25048E+01  9.90377E+01   54   47   20       1
      3  5.40000E+03  5.30151E+03  9.93391E-01 -9.25330E+01  1.04934E+02   55   47   20       1
      3  5.50000E+03  5.36597E+03  8.82169E-01 -9.30892E+01  4.61755E+02   56   47   20       1
      3  5.55949E+03  5.40000E+03  8.91356E-01 -9.30432E+01  6.98407E+02   56   46   20       1
      3  5.60000E+03  5.43341E+03  8.12802E-01 -9.34360E+01  9.14267E+02   57   46   20       1
      3  5.69064E+03  5.50000E+03  7.77492E-01 -9.36125E+01  1.44247E+03   57   45   20       1
      3  5.70000E+03  5.50986E+03  7.53650E-01 -9.37318E+01  1.51548E+03   58   45   20       1
      3  5.79366E+03  5.60000E+03  7.25304E-01 -9.38735E+01  2.31358E+03   58   44   20       1
      3  5.80000E+03  5.60905E+03  7.10574E-01 -9.39471E+01  2.38844E+03   59   44   20       1
      3  5.85578E+03  5.70000E+03  2.34912E-01 -9.63254E+01  3.26401E+03   59   43   20       1
      3  5.86339E+03  5.73181E+03  1.00000E+00 -9.75000E+01  3.55337E+03   59   43   21       1
      3  5.90000E+03  5.75314E+03  6.48585E-01 -9.92571E+01  3.88967E+03   60   43   21       1
      3  5.97923E+03  5.80000E+03  1.02669E-01 -1.01987E+02  4.76352E+03   60   42   21       1
      3  5.99168E+03  5.80866E+03  1.00000E+00 -1.02500E+02  4.91854E+03   60   42   22       1
      3  6.00000E+03  5.80912E+03  9.75809E-01 -1.02621E+02  4.95556E+03   61   42   22       1
      3  6.10000E+03  5.81096E+03  8.22281E-01 -1.03389E+02  5.38611E+03   62   42   22       1
      3  6.20000E+03  5.81025E+03  7.30327E-01 -1.03848E+02  5.79573E+03   63   42   22       1
      3  6.30000E+03  5.80785E+03  6.70251E-01 -1.04149E+02  6.18997E+03   64   42   22       1
      3  6.40000E+03  5.80428E+03  6.14507E-01 -1.04427E+02  6.57113E+03   65   42   22       1
      3  6.49468E+03  5.80000E+03  5.49623E-01 -1.04752E+02  6.92023E+03   65   43   22       1
      3  6.50000E+03  5.79976E+03  5.46515E-01 -1.04767E+02  6.93935E+03   66   43   22       1
      3  6.60000E+03  5.79459E+03  4.89825E-01 -1.05051E+02  7.29178E+03   67   43   22       1
      3  6.60238E+03  5.79445E+03  4.88565E-01 -1.05057E+02  7.30000E+03   67   43   22       1
      4  5.28915E+03  5.37084E+03  9.99000E-01 -9.25050E+01  0.00000E+00   53   47   20       1
      4  5.30000E+03  5.38499E+03  9.26443E-01 -9.28678E+01  3.41353E+01   54   47   20       1
      4  5.31617E+03  5.40000E+03  8.78546E-01 -9.31073E+01  8.51474E+01   54   46   20       1
      4  5.38312E+03  5.50000E+03  3.71187E-01 -9.56441E+01  4.13423E+02   54   45   20       1
      4  5.40000E+03  5.54020E+03  1.14090E-01 -9.69296E+01  5.42335E+02   55   45   20       1
      4  5.41450E+03  5.56610E+03  1.00000E+00 -9.75000E+01  6.50187E+02   55   45   21       1
      4  5.45809E+03  5.60000E+03  8.18443E-01 -9.84078E+01  8.30999E+02   55   44   21       1
      4  5.50000E+03  5.64167E+03  5.47252E-01 -9.97637E+01  1.04778E+03   56   44   21       1
      4  5.58656E+03  5.70000E+03  2.93289E-01 -1.01034E+02  1.45355E+03   56   43   21       1
      4  5.60000E+03  5.71073E+03  2.39832E-01 -1.01301E+02  1.52623E+03   57   43   21       1
      4  5.70000E+03  5.76792E+03  2.22626E-02 -1.02389E+02  2.03785E+03   58   43   21       1
      4  5.71734E+03  5.77527E+03  1.00000E+00 -1.02500E+02  2.12301E+03   58   43   22       1
      4  5.80000E+03  5.78401E+03  9.43974E-01 -1.02780E+02  2.34426E+03   59   43   22       1
      4  5.90000E+03  5.79182E+03  2.54089E-02 -1.07373E+02  2.68899E+03   60   43   22       1
      4  5.91650E+03  5.79270E+03  1.00000E+00 -1.07500E+02  2.76535E+03   60   43   23       1
      4  6.00000E+03  5.78645E+03  9.27510E-01 -1.07862E+02  2.99372E+03   61   43   23       1
      4  6.10000E+03  5.77825E+03  8.91843E-01 -1.08041E+02  3.25224E+03   62   43   23       1
      4  6.20000E+03  5.77005E+03  8.72774E-01 -1.08136E+02  3.50238E+03   63   43   23       1
      4  6.30000E+03  5.76220E+03  8.58717E-01 -1.08206E+02  3.74686E+03   64   43   23       1
      4  6.40000E+03  5.75462E+03  8.41769E-01 -1.08291E+02  3.98610E+03   65   43   23       1
      4  6.50000E+03  5.74706E+03  8.21983E-01 -1.08390E+02  4.21925E+03   66   43   23       1
      4  6.60000E+03  5.73957E+03  8.03062E-01 -1.08485E+02  4.44550E+03   67   43   23       1
      4  6.70000E+03  5.73233E+03  7.85957E-01 -1.08570E+02  4.66454E+03   68   43   23       1
      4  6.80000E+03  5.72551E+03  7.70811E-01 -1.08646E+02  4.87629E+03   69   43   23       1
      4  6.90000E+03  5.71926E+03  7.57912E-01 -1.08710E+02  5.08082E+03   70   43   23       1
      4  7.00000E+03  5.71370E+03  7.47647E-01 -1.08762E+02  5.27837E+03   71   43   23       1
      4  7.10000E+03  5.70896E+03  7.39171E-01 -1.08804E+02  5.46917E+03   72   43   23       1
      4  7.20000E+03  5.70523E+03  7.35010E-01 -1.08825E+02  5.65362E+03   73   43   23       1
      4  7.30000E+03  5.70247E+03  7.28522E-01 -1.08857E+02  5.83179E+03   74   43   23       1
      4  7.40000E+03  5.70142E+03  7.37390E-01 -1.08813E+02  6.00438E+03   75   43   23       1
      4  7.50000E+03  5.70111E+03  7.28253E-01 -1.08859E+02  6.17098E+03   76   43   23       1
      4  7.60000E+03  5.70406E+03  7.61748E-01 -1.08691E+02  6.33241E+03   77   43   23       1
      4  7.70000E+03  5.70633E+03  7.47504E-01 -1.08762E+02  6.48778E+03   78   43   23       1
      4  7.80000E+03  5.71276E+03  8.09050E-01 -1.08455E+02  6.63757E+03   79   43   23       1
      4  7.90000E+03  5.71714E+03  8.24239E-01 -1.08379E+02  6.78254E+03   80   43   23       1
      4  8.00000E+03  5.72407E+03  9.08525E-01 -1.07957E+02  6.92273E+03   81   43   23       1
      4  8.10000E+03  5.72816E+03  9.43469E-01 -1.07783E+02  7.05890E+03   82   43   23       1
      4  8.16063E+03  5.73169E+03  0.00000E+00 -1.07500E+02  7.13937E+03   82   43   22       1
      4  8.20000E+03  5.73304E+03  5.41260E-02 -1.07229E+02  7.21335E+03   83   43   22       1
      4  8.24691E+03  5.73342E+03  8.16498E-02 -1.07092E+02  7.30000E+03   83   43   22       1
      5  5.19854E+03  5.44580E+03  9.99000E-01 -9.25050E+01  0.00000E+00   52   46   20       1
      5  5.20000E+03  5.45099E+03  9.70911E-01 -9.26454E+01  9.58684E+00   53   46   20       1
      5  5.21872E+03  5.50000E+03  6.63689E-01 -9.41816E+01  1.29080E+02   53   45   20       1
      5  5.23514E+03  5.60000E+03  4.97879E-02 -9.72511E+01  3.82424E+02   53   44   20       1
      5  5.23517E+03  5.61071E+03  1.00000E+00 -9.75000E+01  4.10551E+02   53   44   21       1
      5  5.24176E+03  5.70000E+03  5.83121E-01 -9.95844E+01  6.64962E+02   53   43   21       1
      5  5.23168E+03  5.80000E+03  3.64291E-01 -1.00679E+02  9.67477E+02   53   42   21       1
      5  5.20629E+03  5.90000E+03  3.03139E-01 -1.00984E+02  1.29601E+03   53   41   21       1
      5  5.20000E+03  5.91733E+03  3.02158E-01 -1.00989E+02  1.35599E+03   52   41   21       1
      5  5.16758E+03  6.00000E+03  6.34660E-01 -9.93267E+01  1.63695E+03   52   40   21       1
      5  5.11925E+03  6.08482E+03  0.00000E+00 -9.75000E+01  1.95041E+03   52   40   20       1
      5  5.10925E+03  6.10000E+03  6.45828E-02 -9.71771E+01  2.00927E+03   52   39   20       1
      5  5.10000E+03  6.11276E+03  1.21812E-01 -9.68909E+01  2.05938E+03   51   39   20       1
      5  5.03263E+03  6.20000E+03  1.39006E-01 -9.68050E+01  2.40595E+03   51   38   20       1
      5  5.00000E+03  6.23692E+03  1.47078E-01 -9.67646E+01  2.56135E+03   50   38   20       1
      5  4.94009E+03  6.30000E+03  1.49719E-01 -9.67514E+01  2.83484E+03   50   37   20       1
      5  4.90000E+03  6.33842E+03  1.51431E-01 -9.67428E+01  3.00901E+03   49   37   20       1
      5  4.83059E+03  6.40000E+03  1.64082E-01 -9.66796E+01  3.29971E+03   49   36   20       1
      5  4.80000E+03  6.42555E+03  1.69534E-01 -9.66523E+01  3.42474E+03   48   36   20       1
      5  4.70825E+03  6.50000E+03  3.01360E-01 -9.59932E+01  3.80650E+03   48   35   20       1
      5  4.70000E+03  6.50675E+03  3.14380E-01 -9.59281E+01  3.84223E+03   47   35   20       1
      5  4.60000E+03  6.58462E+03  3.93221E-01 -9.55339E+01  4.27301E+03   46   35   20       1
      5  4.57838E+03  6.60000E+03  5.85118E-01 -9.45744E+01  4.36270E+03   46   34   20       1
      5  4.52234E+03  6.63606E+03  0.00000E+00 -9.25000E+01  4.57660E+03   46   34   19       1
      5  4.50000E+03  6.64911E+03  1.41609E-01 -9.17920E+01  4.65526E+03   45   34   19       1
      5  4.40540E+03  6.70000E+03  1.67187E-01 -9.16641E+01  4.97770E+03   45   33   19       1
      5  4.40000E+03  6.70287E+03  1.68645E-01 -9.16568E+01  4.99622E+03   44   33   19       1
      5  4.30000E+03  6.75289E+03  1.72012E-01 -9.16399E+01  5.33416E+03   43   33   19       1
      5  4.20000E+03  6.79877E+03  1.74121E-01 -9.16294E+01  5.66382E+03   42   33   19       1
      5  4.19714E+03  6.80000E+03  1.74251E-01 -9.16287E+01  5.67312E+03   42   32   19       1
      5  4.10000E+03  6.84174E+03  1.78636E-01 -9.16068E+01  5.99177E+03   41   32   19       1
      5  4.00000E+03  6.88187E+03  2.21538E-01 -9.13923E+01  6.31645E+03   40   32   19       1
      5  3.94918E+03  6.90000E+03  6.43713E-01 -8.92814E+01  6.47108E+03   40   31   19       1
      5  3.90000E+03  6.91572E+03  9.69373E-01 -8.76531E+01  6.60617E+03   39   31   19       1
      5  3.80000E+03  6.94442E+03  9.90097E-01 -8.75495E+01  6.86769E+03   38   31   19       1
      5  3.70000E+03  6.97144E+03  9.92796E-01 -8.75360E+01  7.12941E+03   37   31   19       1
      5  3.63445E+03  6.98805E+03  9.94983E-01 -8.75251E+01  7.30000E+03   37   31   19       1
      6  5.09214E+03  5.49587E+03  9.99000E-01 -9.25050E+01  0.00000E+00   51   46   20       1
      6  5.09262E+03  5.50000E+03  9.93419E-01 -9.25329E+01  6.65112E+00   51   45   20       1
      6  5.08616E+03  5.60000E+03  9.49341E-01 -9.27533E+01  1.84479E+02   51   44   20       1
      6  5.06366E+03  5.70000E+03  9.42738E-01 -9.27863E+01  3.97196E+02   51   43   20       1
      6  5.02511E+03  5.80000E+03  9.49716E-01 -9.27514E+01  6.45592E+02   51   42   20       1
      6  5.00000E+03  5.84912E+03  9.56194E-01 -9.27190E+01  7.80789E+02   50   42   20       1
      6  4.97117E+03  5.90000E+03  9.58206E-01 -9.27090E+01  9.26474E+02   50   41   20       1
      6  4.90150E+03  6.00000E+03  9.62659E-01 -9.26867E+01  1.24054E+03   50   40   20       1
      6  4.90000E+03  6.00193E+03  9.62750E-01 -9.26862E+01  1.24696E+03   49   40   20       1
      6  4.81536E+03  6.10000E+03  9.88048E-01 -9.25598E+01  1.59268E+03   49   39   20       1
      6  4.80000E+03  6.11624E+03  9.92426E-01 -9.25379E+01  1.65337E+03   48   39   20       1
      6  4.79670E+03  6.11962E+03  0.00000E+00 -9.25000E+01  1.66635E+03   48   39   19       1
      6  4.71582E+03  6.20000E+03  1.97565E-01 -9.15122E+01  1.98728E+03   48   38   19       1
      6  4.70000E+03  6.21571E+03  2.39749E-01 -9.13013E+01  2.05278E+03   47   38   19       1
      6  4.60729E+03  6.30000E+03  3.40840E-01 -9.07958E+01  2.42824E+03   47   37   19       1
      6  4.60000E+03  6.30639E+03  3.48669E-01 -9.07567E+01  2.45774E+03   46   37   19       1
      6  4.50000E+03  6.37987E+03  9.41145E-01 -8.77943E+01  2.81819E+03   45   37   19       1
      6  4.46686E+03  6.40000E+03  9.52983E-01 -8.77351E+01  2.92469E+03   45   36   19       1
      6  4.40000E+03  6.44033E+03  9.76698E-01 -8.76165E+01  3.14227E+03   44   36   19       1
      6  4.30000E+03  6.49503E+03  9.81792E-01 -8.75910E+01  3.45998E+03   43   36   19       1
      6  4.29014E+03  6.50000E+03  9.82118E-01 -8.75894E+01  3.49080E+03   43   35   19       1
      6  4.20000E+03  6.54544E+03  9.85117E-01 -8.75744E+01  3.77606E+03   42   35   19       1
      6  4.10000E+03  6.59142E+03  9.91945E-01 -8.75403E+01  4.08608E+03   41   35   19       1
      6  4.08558E+03  6.59759E+03  0.00000E+00 -8.75000E+01  4.13036E+03   41   35   18       1
      6  4.07993E+03  6.60000E+03  3.14636E-03 -8.74843E+01  4.14764E+03   41   34   18       1
      6  4.00000E+03  6.63422E+03  4.74014E-02 -8.72630E+01  4.39536E+03   40   34   18       1
      6  3.90000E+03  6.67020E+03  6.42137E-01 -8.42893E+01  4.67299E+03   39   34   18       1
      6  3.80155E+03  6.70000E+03  6.67746E-01 -8.41613E+01  4.92005E+03   39   33   18       1
      6  3.80000E+03  6.70047E+03  6.68150E-01 -8.41592E+01  4.92400E+03   38   33   18       1
      6  3.70000E+03  6.72905E+03  6.72276E-01 -8.41386E+01  5.17806E+03   37   33   18       1
      6  3.60000E+03  6.75558E+03  6.77280E-01 -8.41136E+01  5.43055E+03   36   33   18       1
      6  3.50000E+03  6.78041E+03  7.19603E-01 -8.39020E+01  5.68307E+03   35   33   18       1
      6  3.46063E+03  6.78916E+03  0.00000E+00 -8.25000E+01  5.77773E+03   35   33   17       1
      6  3.40583E+03  6.80000E+03  3.13637E-01 -8.09318E+01  5.89543E+03   35   32   17       1
      6  3.40000E+03  6.80110E+03  3.43106E-01 -8.07845E+01  5.90735E+03   34   32   17       1
      6  3.30000E+03  6.82024E+03  6.53259E-01 -7.92337E+01  6.13171E+03   33   32   17       1
      6  3.20000E+03  6.84028E+03  6.89836E-01 -7.90508E+01  6.38195E+03   32   32   17       1
      6  3.10000E+03  6.85938E+03  7.34514E-01 -7.88274E+01  6.63528E+03   31   32   17       1
      6  3.06201E+03  6.86592E+03  0.00000E+00 -7.75000E+01  6.72715E+03   31   32   16       1
      6  3.00000E+03  6.87538E+03  3.42920E-01 -7.57854E+01  6.86023E+03   30   32   16       1
      6  2.90000E+03  6.88873E+03  3.61473E-01 -7.56926E+01  7.06175E+03   29   32   16       1
      6  2.80980E+03  6.90000E+03  3.64905E-01 -7.56755E+01  7.24390E+03   29   31   16       1
      6  2.80000E+03  6.90123E+03  3.65282E-01 -7.56736E+01  7.26387E+03   28   31   16       1
      6  2.78227E+03  6.90332E+03  3.66101E-01 -7.56695E+01  7.30000E+03   28   31   16       1
      7  4.97663E+03  5.51790E+03  9.99000E-01 -9.25050E+01  0.00000E+00   50   45   20       1
      7  4.95036E+03  5.60000E+03  9.96033E-01 -9.25198E+01  1.39844E+02   50   44   20       1
      7  4.90372E+03  5.70000E+03  9.97360E-01 -9.25132E+01  3.43899E+02   50   43   20       1
      7  4.90000E+03  5.70685E+03  9.97556E-01 -9.25122E+01  3.59269E+02   49   43   20       1
      7  4.89292E+03  5.71927E+03  0.00000E+00 -9.25000E+01  3.88146E+02   49   43   19       1
      7  4.84048E+03  5.80000E+03  1.70212E-02 -9.24149E+01  5.88610E+02   49   42   19       1
      7  4.80000E+03  5.85463E+03  2.89459E-02 -9.23553E+01  7.37373E+02   48   42   19       1
      7  4.76148E+03  5.90000E+03  1.20741E-01 -9.18963E+01  8.74213E+02   48   41   19       1
      7  4.70000E+03  5.97142E+03  2.77333E-01 -9.11133E+01  1.10357E+03   47   41   19       1
      7  4.67266E+03  6.00000E+03  3.07828E-01 -9.09609E+01  1.20459E+03   47   40   19       1
      7  4.60000E+03  6.07341E+03  3.86694E-01 -9.05665E+01  1.47611E+03   46   40   19       1
      7  4.56922E+03  6.10000E+03  5.94922E-01 -8.95254E+01  1.58387E+03   46   39   19       1
      7  4.50000E+03  6.15386E+03  9.75909E-01 -8.76205E+01  1.80896E+03   45   39   19       1
      7  4.43277E+03  6.19740E+03  0.00000E+00 -8.75000E+01  2.00926E+03   45   39   18       1
      7  4.42866E+03  6.20000E+03  1.46942E-03 -8.74927E+01  2.02143E+03   45   38   18       1
      7  4.40000E+03  6.21860E+03  1.16562E-02 -8.74417E+01  2.10895E+03   44   38   18       1
      7  4.30000E+03  6.27697E+03  1.66901E-02 -8.74165E+01  2.40780E+03   43   38   18       1
      7  4.25612E+03  6.30000E+03  1.81015E-02 -8.74095E+01  2.53622E+03   43   37   18       1
      7  4.20000E+03  6.32969E+03  1.99249E-02 -8.74004E+01  2.70389E+03   42   37   18       1
      7  4.10000E+03  6.37774E+03  2.66815E-02 -8.73666E+01  2.99784E+03   41   37   18       1
      7  4.04934E+03  6.40000E+03  5.46768E-02 -8.72266E+01  3.14479E+03   41   36   18       1
      7  4.00000E+03  6.42191E+03  8.18131E-02 -8.70909E+01  3.29060E+03   40   36   18       1
      7  3.90000E+03  6.45913E+03  6.70033E-01 -8.41498E+01  3.55645E+03   39   36   18       1
      7  3.80000E+03  6.49019E+03  6.96205E-01 -8.40190E+01  3.79723E+03   38   36   18       1
      7  3.76588E+03  6.50000E+03  6.97606E-01 -8.40120E+01  3.87927E+03   38   35   18       1
      7  3.70000E+03  6.51922E+03  7.00327E-01 -8.39984E+01  4.04059E+03   37   35   18       1
      7  3.60000E+03  6.54620E+03  7.05345E-01 -8.39733E+01  4.28464E+03   36   35   18       1
      7  3.50000E+03  6.57132E+03  7.47823E-01 -8.37609E+01  4.52920E+03   35   35   18       1
      7  3.46453E+03  6.57929E+03  0.00000E+00 -8.25000E+01  4.61233E+03   35   35   17       1
      7  3.40000E+03  6.59214E+03  3.64926E-01 -8.06754E+01  4.74669E+03   34   35   17       1
      7  3.35604E+03  6.60000E+03  4.88034E-01 -8.00598E+01  4.83607E+03   34   34   17       1
      7  3.30000E+03  6.61123E+03  6.80255E-01 -7.90987E+01  4.96392E+03   33   34   17       1
      7  3.20000E+03  6.63128E+03  7.17345E-01 -7.89133E+01  5.20811E+03   32   34   17       1
      7  3.10000E+03  6.65033E+03  7.62186E-01 -7.86891E+01  5.45578E+03   31   34   17       1
      7  3.06591E+03  6.65620E+03  0.00000E+00 -7.75000E+01  5.53688E+03   31   34   16       1
      7  3.00000E+03  6.66626E+03  3.64282E-01 -7.56786E+01  5.67607E+03   30   34   16       1
      7  2.90000E+03  6.67952E+03  3.82845E-01 -7.55858E+01  5.87375E+03   29   34   16       1
      7  2.80000E+03  6.69188E+03  3.86617E-01 -7.55669E+01  6.07212E+03   28   34   16       1
      7  2.72957E+03  6.70000E+03  3.89830E-01 -7.55508E+01  6.21221E+03   28   33   16       1
      7  2.70000E+03  6.70344E+03  3.91194E-01 -7.55440E+01  6.27162E+03   27   33   16       1
      7  2.60000E+03  6.71435E+03  4.31380E-01 -7.53431E+01  6.47389E+03   26   33   16       1
      7  2.53917E+03  6.72050E+03  0.00000E+00 -7.25000E+01  6.59621E+03   26   33   15       1
      7  2.50000E+03  6.72443E+03  3.59520E-01 -7.07024E+01  6.67447E+03   25   33   15       1
      7  2.40000E+03  6.73385E+03  4.00166E-01 -7.04992E+01  6.87587E+03   24   33   15       1
      7  2.30000E+03  6.74274E+03  4.06023E-01 -7.04699E+01  7.07920E+03   23   33   15       1
      7  2.20000E+03  6.75108E+03  4.11334E-01 -7.04433E+01  7.28341E+03   22   33   15       1
      7  2.19189E+03  6.75171E+03  4.13866E-01 -7.04307E+01  7.30000E+03   22   33   15       1
      8  4.85926E+03  5.51052E+03  9.99000E-01 -9.25050E+01  0.00000E+00   49   45   20       1
      8  4.85619E+03  5.51647E+03  0.00000E+00 -9.25000E+01  9.73498E+00   49   45   19       1
      8  4.80472E+03  5.60000E+03  1.53336E-02 -9.24233E+01  1.58696E+02   49   44   19       1
      8  4.80000E+03  5.60741E+03  1.66733E-02 -9.24166E+01  1.73139E+02   48   44   19       1
      8  4.72871E+03  5.70000E+03  1.87263E-01 -9.15637E+01  3.86197E+02   48   43   19       1
      8  4.70000E+03  5.73730E+03  2.59308E-01 -9.12035E+01  4.79556E+02   47   43   19       1
      8  4.64278E+03  5.80000E+03  3.21684E-01 -9.08916E+01  6.59867E+02   47   42   19       1
      8  4.60000E+03  5.84628E+03  3.67035E-01 -9.06648E+01  8.00224E+02   46   42   19       1
      8  4.53817E+03  5.90000E+03  7.62019E-01 -8.86899E+01  9.84432E+02   46   41   19       1
      8  4.50000E+03  5.93051E+03  9.60472E-01 -8.76976E+01  1.09258E+03   45   41   19       1
      8  4.40000E+03  5.99715E+03  9.95869E-01 -8.75207E+01  1.36000E+03   44   41   19       1
      8  4.39514E+03  6.00000E+03  9.96103E-01 -8.75195E+01  1.37278E+03   44   40   19       1
      8  4.31481E+03  6.04861E+03  0.00000E+00 -8.75000E+01  1.59344E+03   44   40   18       1
      8  4.30000E+03  6.05732E+03  7.09534E-04 -8.74965E+01  1.63357E+03   43   40   18       1
      8  4.21929E+03  6.10000E+03  3.13721E-03 -8.74843E+01  1.85010E+03   43   39   18       1
      8  4.20000E+03  6.11043E+03  3.72925E-03 -8.74814E+01  1.90358E+03   42   39   18       1
      8  4.10000E+03  6.15923E+03  1.02707E-02 -8.74486E+01  2.17820E+03   41   39   18       1
      8  4.00722E+03  6.20000E+03  6.08612E-02 -8.71957E+01  2.42986E+03   41   38   18       1
      8  4.00000E+03  6.20324E+03  6.47949E-02 -8.71760E+01  2.44998E+03   40   38   18       1
      8  3.90000E+03  6.24073E+03  6.54770E-01 -8.42262E+01  2.70206E+03   39   38   18       1
      8  3.80000E+03  6.27177E+03  6.80789E-01 -8.40961E+01  2.93122E+03   38   38   18       1
      8  3.70073E+03  6.30000E+03  6.84752E-01 -8.40762E+01  3.15892E+03   38   37   18       1
      8  3.70000E+03  6.30021E+03  6.84781E-01 -8.40761E+01  3.16064E+03   37   37   18       1
      8  3.60000E+03  6.32695E+03  6.89679E-01 -8.40516E+01  3.39533E+03   36   37   18       1
      8  3.50000E+03  6.35170E+03  7.31717E-01 -8.38414E+01  3.63113E+03   35   37   18       1
      8  3.46217E+03  6.36000E+03  0.00000E+00 -8.25000E+01  3.71656E+03   35   37   17       1
      8  3.40000E+03  6.37212E+03  3.51201E-01 -8.07440E+01  3.84149E+03   34   37   17       1
      8  3.30000E+03  6.39059E+03  6.63867E-01 -7.91807E+01  4.05043E+03   33   37   17       1
      8  3.25084E+03  6.40000E+03  6.81754E-01 -7.90912E+01  4.16504E+03   33   36   17       1
      8  3.20000E+03  6.40998E+03  7.00618E-01 -7.89969E+01  4.28648E+03   32   36   17       1
      8  3.10000E+03  6.42849E+03  7.45003E-01 -7.87750E+01  4.52816E+03   31   36   17       1
      8  3.06338E+03  6.43457E+03  0.00000E+00 -7.75000E+01  4.61304E+03   31   36   16       1
      8  3.00000E+03  6.44394E+03  3.50023E-01 -7.57499E+01  4.74363E+03   30   36   16       1
      8  2.90000E+03  6.45676E+03  3.68454E-01 -7.56577E+01  4.93734E+03   29   36   16       1
      8  2.80000E+03  6.46867E+03  3.72121E-01 -7.56394E+01  5.13203E+03   28   36   16       1
      8  2.70000E+03  6.47976E+03  3.76593E-01 -7.56170E+01  5.32762E+03   27   36   16       1
      8  2.60000E+03  6.49013E+03  4.16451E-01 -7.54177E+01  5.52514E+03   26   36   16       1
      8  2.53753E+03  6.49612E+03  0.00000E+00 -7.25000E+01  5.64796E+03   26   36   15       1
      8  2.50000E+03  6.49970E+03  3.44609E-01 -7.07770E+01  5.72137E+03   25   36   15       1
      8  2.49658E+03  6.50000E+03  3.45973E-01 -7.07701E+01  5.72807E+03   25   35   15       1
      8  2.40000E+03  6.50869E+03  3.85066E-01 -7.05747E+01  5.92006E+03   24   35   15       1
      8  2.30000E+03  6.51714E+03  3.90849E-01 -7.05458E+01  6.12091E+03   23   35   15       1
      8  2.20000E+03  6.52506E+03  3.96089E-01 -7.05196E+01  6.32280E+03   22   35   15       1
      8  2.10000E+03  6.53249E+03  4.27345E-01 -7.03633E+01  6.52597E+03   21   35   15       1
      8  2.00897E+03  6.53801E+03  0.00000E+00 -6.75000E+01  6.68748E+03   21   35   14       1
      8  2.00000E+03  6.53848E+03  4.24484E-02 -6.72878E+01  6.70140E+03   20   35   14       1
      8  1.90000E+03  6.54328E+03  6.18546E-02 -6.71907E+01  6.85516E+03   19   35   14       1
      8  1.80000E+03  6.54829E+03  3.89520E-01 -6.55524E+01  7.03184E+03   18   35   14       1
      8  1.70000E+03  6.55373E+03  4.18214E-01 -6.54089E+01  7.23756E+03   17   35   14       1
      8  1.66994E+03  6.55527E+03  4.20239E-01 -6.53988E+01  7.30000E+03   17   35   14       1
      9  4.74742E+03  5.47418E+03  9.99000E-01 -9.25050E+01  0.00000E+00   48   46   20       1
      9  4.74699E+03  5.47469E+03  0.00000E+00 -9.25000E+01  9.14941E-01   48   46   19       1
      9  4.72466E+03  5.50000E+03  5.13016E-02 -9.22435E+01  4.72272E+01   48   45   19       1
      9  4.70000E+03  5.53246E+03  1.08000E-01 -9.19600E+01  1.09063E+02   47   45   19       1
      9  4.63419E+03  5.60000E+03  1.75539E-01 -9.16223E+01  2.68835E+02   47   44   19       1
      9  4.60000E+03  5.63700E+03  2.10056E-01 -9.14497E+01  3.60675E+02   46   44   19       1
      9  4.52331E+03  5.70000E+03  7.01765E-01 -8.89912E+01  5.46237E+02   46   43   19       1
      9  4.50000E+03  5.71842E+03  8.24527E-01 -8.83774E+01  6.02012E+02   45   43   19       1
      9  4.40000E+03  5.78335E+03  8.58432E-01 -8.82078E+01  8.32959E+02   44   43   19       1
      9  4.36996E+03  5.80000E+03  8.59712E-01 -8.82014E+01  9.01494E+02   44   42   19       1
      9  4.30000E+03  5.84098E+03  8.62759E-01 -8.81862E+01  1.07178E+03   43   42   19       1
      9  4.20000E+03  5.89174E+03  8.65346E-01 -8.81733E+01  1.31245E+03   42   42   19       1
      9  4.18166E+03  5.90000E+03  8.66397E-01 -8.81680E+01  1.35640E+03   42   41   19       1
      9  4.10000E+03  5.93852E+03  8.71222E-01 -8.81439E+01  1.56215E+03   41   41   19       1
      9  4.00000E+03  5.98109E+03  9.23717E-01 -8.78814E+01  1.81529E+03   40   41   19       1
      9  3.98957E+03  5.98511E+03  0.00000E+00 -8.75000E+01  1.84154E+03   40   41   18       1
      9  3.94829E+03  6.00000E+03  2.68779E-01 -8.61561E+01  1.93895E+03   40   40   18       1
      9  3.90000E+03  6.01660E+03  5.35759E-01 -8.48212E+01  2.04758E+03   39   40   18       1
      9  3.80000E+03  6.04632E+03  5.60863E-01 -8.46957E+01  2.26392E+03   38   40   18       1
      9  3.70000E+03  6.07337E+03  5.64490E-01 -8.46776E+01  2.48166E+03   37   40   18       1
      9  3.60000E+03  6.09814E+03  5.68880E-01 -8.46556E+01  2.70072E+03   36   40   18       1
      9  3.59183E+03  6.10000E+03  5.72116E-01 -8.46394E+01  2.71870E+03   36   39   18       1
      9  3.50000E+03  6.12151E+03  6.09175E-01 -8.44541E+01  2.92677E+03   35   39   18       1
      9  3.44472E+03  6.13269E+03  0.00000E+00 -8.25000E+01  3.04453E+03   35   39   17       1
      9  3.40000E+03  6.14077E+03  2.52402E-01 -8.12380E+01  3.12973E+03   34   39   17       1