@ [ MODPATH Version 3.00 (V3, Release 2, 5-99) [PC] (TREF=   0.730000E+04 ) ]
  1   58   52   16  5.79901E+03  4.85714E+03 -7.47575E+01  5.48495E-01  7.30000E+03  5.41630E+03  5.04970E+03  9.99000E-01   55   50   20   1     1     10  0.00000E+00
  1   62   39   23  6.17896E+03  6.16681E+03 -1.08480E+02  8.04054E-01  7.30000E+03  5.40156E+03  5.16637E+03  9.99000E-01   55   49   20   1     1     10  0.00000E+00
  1   67   43   22  6.60238E+03  5.79445E+03 -1.05057E+02  4.88565E-01  7.30000E+03  5.35827E+03  5.27571E+03  9.99000E-01   54   48   20   1     1     10  0.00000E+00
  1   83   43   22  8.24691E+03  5.73342E+03 -1.07092E+02  8.16498E-02  7.30000E+03  5.28915E+03  5.37084E+03  9.99000E-01   53   47   20   1     1     10  0.00000E+00
  1   37   31   19  3.63445E+03  6.98805E+03 -8.75251E+01  9.94983E-01  7.30000E+03  5.19854E+03  5.44580E+03  9.99000E-01   52   46   20   1     1     10  0.00000E+00
  1   28   31   16  2.78227E+03  6.90332E+03 -7.56695E+01  3.66101E-01  7.30000E+03  5.09214E+03  5.49587E+03  9.99000E-01   51   46   20   1     1     10  0.00000E+00
  1   22   33   15  2.19189E+03  6.75171E+03 -7.04307E+01  4.13866E-01  7.30000E+03  4.97663E+03  5.51790E+03  9.99000E-01   50   45   20   1     1     10  0.00000E+00
  1   17   35   14  1.66994E+03  6.55527E+03 -6.53988E+01  4.20239E-01  7.30000E+03  4.85926E+03  5.51052E+03  9.99000E-01   49   45   20   1     1     10  0.00000E+00
  1   13   37   14  1.29507E+03  6.32456E+03 -6.58404E+01  3.31912E-01  7.30000E+03  4.74742E+03  5.47418E+03  9.99000E-01   48   46   20   1     1     10  0.00000E+00
  1   11   40   14  1.01462E+03  6.06020E+03 -6.30122E+01  8.97554E-01  7.30000E+03  4.64813E+03  5.41117E+03  9.99000E-01   47   46   20   1     1     10  0.00000E+00
  1    9   43   13  8.98402E+02  5.77455E+03 -6.09531E+01  3.09382E-01  7.30000E+03  4.56764E+03  5.32545E+03  9.99000E-01   46   47   20   1     1     10  0.00000E+00
  1    9   46   14  8.45220E+02  5.48696E+03 -6.30688E+01  8.86240E-01  7.30000E+03  4.51098E+03  5.22240E+03  9.99000E-01   46   48   20   1     1     10  0.00000E+00
  1    9   49   14  8.22154E+02  5.19364E+03 -6.33965E+01  8.20696E-01  7.30000E+03  4.48174E+03  5.10850E+03  9.99000E-01   45   49   20   1     1     10  0.00000E+00
  1    9   52   14  8.22289E+02  4.89376E+03 -6.33941E+01  8.21182E-01  7.30000E+03  4.48174E+03  4.99090E+03  9.99000E-01   45   51   20   1     1     10  0.00000E+00
  1    9   54   14  8.45523E+02  4.60033E+03 -6.30624E+01  8.87521E-01  7.30000E+03  4.51098E+03  4.87700E+03  9.99000E-01   46   52   20   1     1     10  0.00000E+00
  1    9   57   13  8.99085E+02  4.31270E+03 -6.09612E+01  3.07762E-01  7.30000E+03  4.56764E+03  4.77395E+03  9.99000E-01   46   53   20   1     1     10  0.00000E+00
  1   11   60   14  1.01620E+03  4.02721E+03 -6.30992E+01  8.80164E-01  7.30000E+03  4.64813E+03  4.68823E+03  9.99000E-01   47   54   20   1     1     10  0.00000E+00
  1   13   63   14  1.29852E+03  3.76325E+03 -6.58327E+01  3.33466E-01  7.30000E+03  4.74742E+03  4.62522E+03  9.99000E-01   48   54   20   1     1     10  0.00000E+00
  1   17   65   14  1.67263E+03  3.53373E+03 -6.53928E+01  4.21446E-01  7.30000E+03  4.85926E+03  4.58888E+03  9.99000E-01   49   55   20   1     1     10  0.00000E+00
  1   22   67   15  2.19361E+03  3.33869E+03 -7.04210E+01  4.15808E-01  7.30000E+03  4.97663E+03  4.58150E+03  9.99000E-01   50   55   20   1     1     10  0.00000E+00
  1   28   69   16  2.78110E+03  3.18876E+03 -7.56360E+01  3.72803E-01  7.30000E+03  5.09214E+03  4.60353E+03  9.99000E-01   51   54   20   1     1     10  0.00000E+00
  1   37   69   18  3.62359E+03  3.10534E+03 -8.73409E+01  3.18176E-02  7.30000E+03  5.19854E+03  4.65360E+03  9.99000E-01   52   54   20   1     1     10  0.00000E+00
  1   84   56   23  8.31990E+03  4.44762E+03 -1.10269E+02  4.46127E-01  7.30000E+03  5.28915E+03  4.72856E+03  9.99000E-01   53   53   20   1     1     10  0.00000E+00
  1   67   57   22  6.67388E+03  4.32701E+03 -1.05348E+02  4.30391E-01  7.30000E+03  5.35827E+03  4.82369E+03  9.99000E-01   54   52   20   1     1     10  0.00000E+00
  1   61   62   23  6.02110E+03  3.87863E+03 -1.08626E+02  7.74756E-01  7.30000E+03  5.40156E+03  4.93303E+03  9.99000E-01   55   51   20   1     1     10  0.00000E+00
